# generated using pymatgen
data_Zn2CdS
_symmetry_space_group_name_H-M   'P 1'
_cell_length_a   3.71088844
_cell_length_b   6.74640758
_cell_length_c   3.71086388
_cell_angle_alpha   95.39478224
_cell_angle_beta   90.49449007
_cell_angle_gamma   84.61323610
_symmetry_Int_Tables_number   1
_chemical_formula_structural   Zn2CdS
_chemical_formula_sum   'Zn2 Cd1 S1'
_cell_volume   92.08211605
_cell_formula_units_Z   1
loop_
 _symmetry_equiv_pos_site_id
 _symmetry_equiv_pos_as_xyz
  1  'x, y, z'
loop_
 _atom_site_type_symbol
 _atom_site_label
 _atom_site_symmetry_multiplicity
 _atom_site_fract_x
 _atom_site_fract_y
 _atom_site_fract_z
 _atom_site_occupancy
  S  S0  1  0.50363262  0.50323446  0.00070086  1
  Zn  Zn1  1  0.00250115  0.00382141  0.49959070  1
  Zn  Zn2  1  0.50274865  0.00262864  0.00072664  1
  Cd  Cd3  1  0.00393299  0.50128657  0.50025385  1
