# generated using pymatgen
data_Zn2CdS
_symmetry_space_group_name_H-M   'P 1'
_cell_length_a   3.71084751
_cell_length_b   6.74699428
_cell_length_c   3.71085111
_cell_angle_alpha   95.39766326
_cell_angle_beta   89.50552815
_cell_angle_gamma   95.39606186
_symmetry_Int_Tables_number   1
_chemical_formula_structural   Zn2CdS
_chemical_formula_sum   'Zn2 Cd1 S1'
_cell_volume   92.08694302
_cell_formula_units_Z   1
loop_
 _symmetry_equiv_pos_site_id
 _symmetry_equiv_pos_as_xyz
  1  'x, y, z'
loop_
 _atom_site_type_symbol
 _atom_site_label
 _atom_site_symmetry_multiplicity
 _atom_site_fract_x
 _atom_site_fract_y
 _atom_site_fract_z
 _atom_site_occupancy
  S  S0  1  0.50023369  0.50022492  0.00068489  1
  Zn  Zn1  1  0.00057621  0.00014407  0.50193398  1
  Zn  Zn2  1  0.50039844  0.00033954  0.00233252  1
  Cd  Cd3  1  0.00051832  0.50025208  0.50081780  1
