# generated using pymatgen
data_Zn2CdS
_symmetry_space_group_name_H-M   'P 1'
_cell_length_a   3.82248606
_cell_length_b   5.51799455
_cell_length_c   3.82246204
_cell_angle_alpha   89.99944362
_cell_angle_beta   89.99461565
_cell_angle_gamma   89.99817980
_symmetry_Int_Tables_number   1
_chemical_formula_structural   Zn2CdS
_chemical_formula_sum   'Zn2 Cd1 S1'
_cell_volume   80.62511676
_cell_formula_units_Z   1
loop_
 _symmetry_equiv_pos_site_id
 _symmetry_equiv_pos_as_xyz
  1  'x, y, z'
loop_
 _atom_site_type_symbol
 _atom_site_label
 _atom_site_symmetry_multiplicity
 _atom_site_fract_x
 _atom_site_fract_y
 _atom_site_fract_z
 _atom_site_occupancy
  S  S0  1  0.49999885  0.50004282  0.00008212  1
  Zn  Zn1  1  0.00000584  0.00001980  0.50002316  1
  Zn  Zn2  1  0.50000472  -0.00000558  0.00000829  1
  Cd  Cd3  1  0.00003184  0.50001724  0.49998501  1
