# generated using pymatgen
data_Zn2CdS
_symmetry_space_group_name_H-M   'P 1'
_cell_length_a   3.83357335
_cell_length_b   5.44440373
_cell_length_c   3.83316472
_cell_angle_alpha   90.00038117
_cell_angle_beta   90.00466580
_cell_angle_gamma   90.00204326
_symmetry_Int_Tables_number   1
_chemical_formula_structural   Zn2CdS
_chemical_formula_sum   'Zn2 Cd1 S1'
_cell_volume   80.00397789
_cell_formula_units_Z   1
loop_
 _symmetry_equiv_pos_site_id
 _symmetry_equiv_pos_as_xyz
  1  'x, y, z'
loop_
 _atom_site_type_symbol
 _atom_site_label
 _atom_site_symmetry_multiplicity
 _atom_site_fract_x
 _atom_site_fract_y
 _atom_site_fract_z
 _atom_site_occupancy
  S  S0  1  0.49998766  0.50003769  0.00001941  1
  Zn  Zn1  1  0.00001547  0.00000718  0.50004037  1
  Zn  Zn2  1  0.50001038  -0.00003354  0.00020588  1
  Cd  Cd3  1  0.00012733  0.50000212  0.50001412  1
