# generated using pymatgen
data_Zn2CdS
_symmetry_space_group_name_H-M   'P 1'
_cell_length_a   3.84557422
_cell_length_b   5.35856812
_cell_length_c   3.84566928
_cell_angle_alpha   90.00869865
_cell_angle_beta   89.94968806
_cell_angle_gamma   89.97892811
_symmetry_Int_Tables_number   1
_chemical_formula_structural   Zn2CdS
_chemical_formula_sum   'Zn2 Cd1 S1'
_cell_volume   79.24679109
_cell_formula_units_Z   1
loop_
 _symmetry_equiv_pos_site_id
 _symmetry_equiv_pos_as_xyz
  1  'x, y, z'
loop_
 _atom_site_type_symbol
 _atom_site_label
 _atom_site_symmetry_multiplicity
 _atom_site_fract_x
 _atom_site_fract_y
 _atom_site_fract_z
 _atom_site_occupancy
  S  S0  1  0.50006634  0.49962962  0.00005504  1
  Zn  Zn1  1  0.00040882  0.00016837  0.50006343  1
  Zn  Zn2  1  0.50006759  0.00062334  0.00040738  1
  Cd  Cd3  1  0.00023896  0.50029134  0.50002529  1
