# generated using pymatgen
data_Zn2CdS
_symmetry_space_group_name_H-M   'P 1'
_cell_length_a   3.82252609
_cell_length_b   5.52379984
_cell_length_c   3.82187308
_cell_angle_alpha   90.00322445
_cell_angle_beta   90.00341102
_cell_angle_gamma   89.99403136
_symmetry_Int_Tables_number   1
_chemical_formula_structural   Zn2CdS
_chemical_formula_sum   'Zn2 Cd1 S1'
_cell_volume   80.69834885
_cell_formula_units_Z   1
loop_
 _symmetry_equiv_pos_site_id
 _symmetry_equiv_pos_as_xyz
  1  'x, y, z'
loop_
 _atom_site_type_symbol
 _atom_site_label
 _atom_site_symmetry_multiplicity
 _atom_site_fract_x
 _atom_site_fract_y
 _atom_site_fract_z
 _atom_site_occupancy
  S  S0  1  0.50007534  0.50009748  0.00003567  1
  Zn  Zn1  1  0.00026609  0.00001972  0.50002071  1
  Zn  Zn2  1  0.50009973  -0.00006672  0.00004495  1
  Cd  Cd3  1  0.00022559  0.50000729  0.49999899  1
