# generated using pymatgen
data_Zn2CdS
_symmetry_space_group_name_H-M   'P 1'
_cell_length_a   3.71080935
_cell_length_b   6.74714363
_cell_length_c   3.71086654
_cell_angle_alpha   84.60677914
_cell_angle_beta   89.50308143
_cell_angle_gamma   84.59562658
_symmetry_Int_Tables_number   1
_chemical_formula_structural   Zn2CdS
_chemical_formula_sum   'Zn2 Cd1 S1'
_cell_volume   92.08782953
_cell_formula_units_Z   1
loop_
 _symmetry_equiv_pos_site_id
 _symmetry_equiv_pos_as_xyz
  1  'x, y, z'
loop_
 _atom_site_type_symbol
 _atom_site_label
 _atom_site_symmetry_multiplicity
 _atom_site_fract_x
 _atom_site_fract_y
 _atom_site_fract_z
 _atom_site_occupancy
  Cd  Cd0  1  0.50236454  0.49960221  0.00061456  1
  Zn  Zn1  1  0.00450536  0.00013245  0.50118140  1
  Zn  Zn2  1  0.50619145  0.00044539  0.00014975  1
  S  S3  1  0.00311705  0.49999986  0.50091040  1
