# generated using pymatgen
data_Zn2CdS
_symmetry_space_group_name_H-M   'P 1'
_cell_length_a   3.71107073
_cell_length_b   6.73962466
_cell_length_c   3.71141389
_cell_angle_alpha   84.73471354
_cell_angle_beta   89.51138295
_cell_angle_gamma   84.58963277
_symmetry_Int_Tables_number   1
_chemical_formula_structural   Zn2CdS
_chemical_formula_sum   'Zn2 Cd1 S1'
_cell_volume   92.02351052
_cell_formula_units_Z   1
loop_
 _symmetry_equiv_pos_site_id
 _symmetry_equiv_pos_as_xyz
  1  'x, y, z'
loop_
 _atom_site_type_symbol
 _atom_site_label
 _atom_site_symmetry_multiplicity
 _atom_site_fract_x
 _atom_site_fract_y
 _atom_site_fract_z
 _atom_site_occupancy
  S  S0  1  0.50921401  0.50155463  0.00118034  1
  Zn  Zn1  1  0.00045111  -0.00000772  0.50071661  1
  Zn  Zn2  1  0.49916273  0.00181184  -0.00011122  1
  Cd  Cd3  1  0.00865718  0.50741058  0.50023795  1
