# generated using pymatgen
data_Zn2CdS
_symmetry_space_group_name_H-M   'P 1'
_cell_length_a   3.83284815
_cell_length_b   5.44601162
_cell_length_c   3.83461888
_cell_angle_alpha   90.02680537
_cell_angle_beta   90.00504844
_cell_angle_gamma   89.99735324
_symmetry_Int_Tables_number   1
_chemical_formula_structural   Zn2CdS
_chemical_formula_sum   'Zn2 Cd1 S1'
_cell_volume   80.04281138
_cell_formula_units_Z   1
loop_
 _symmetry_equiv_pos_site_id
 _symmetry_equiv_pos_as_xyz
  1  'x, y, z'
loop_
 _atom_site_type_symbol
 _atom_site_label
 _atom_site_symmetry_multiplicity
 _atom_site_fract_x
 _atom_site_fract_y
 _atom_site_fract_z
 _atom_site_occupancy
  Cd  Cd0  1  0.49998201  0.50021906  0.00231585  1
  Zn  Zn1  1  0.00004404  0.00011087  0.50014729  1
  Zn  Zn2  1  0.50001936  0.00022928  -0.00008807  1
  S  S3  1  0.00004891  0.50022973  0.49949158  1
