# generated using pymatgen
data_Zn2CdS
_symmetry_space_group_name_H-M   'P 1'
_cell_length_a   3.84063934
_cell_length_b   5.39250233
_cell_length_c   3.84085625
_cell_angle_alpha   90.00086585
_cell_angle_beta   90.00127740
_cell_angle_gamma   89.99876657
_symmetry_Int_Tables_number   1
_chemical_formula_structural   Zn2CdS
_chemical_formula_sum   'Zn2 Cd1 S1'
_cell_volume   79.54665494
_cell_formula_units_Z   1
loop_
 _symmetry_equiv_pos_site_id
 _symmetry_equiv_pos_as_xyz
  1  'x, y, z'
loop_
 _atom_site_type_symbol
 _atom_site_label
 _atom_site_symmetry_multiplicity
 _atom_site_fract_x
 _atom_site_fract_y
 _atom_site_fract_z
 _atom_site_occupancy
  S  S0  1  0.49989534  0.49991076  0.00003097  1
  Zn  Zn1  1  0.00015225  0.00013260  0.50001963  1
  Zn  Zn2  1  0.50006346  0.00025084  0.00012981  1
  Cd  Cd3  1  0.00089134  0.50020296  0.49999951  1
