# generated using pymatgen
data_Zn2CdS
_symmetry_space_group_name_H-M   'P 1'
_cell_length_a   3.69722484
_cell_length_b   6.63042503
_cell_length_c   3.73274033
_cell_angle_alpha   85.07677168
_cell_angle_beta   90.00078674
_cell_angle_gamma   90.00514896
_symmetry_Int_Tables_number   1
_chemical_formula_structural   Zn2CdS
_chemical_formula_sum   'Zn2 Cd1 S1'
_cell_volume   91.16743875
_cell_formula_units_Z   1
loop_
 _symmetry_equiv_pos_site_id
 _symmetry_equiv_pos_as_xyz
  1  'x, y, z'
loop_
 _atom_site_type_symbol
 _atom_site_label
 _atom_site_symmetry_multiplicity
 _atom_site_fract_x
 _atom_site_fract_y
 _atom_site_fract_z
 _atom_site_occupancy
  S  S0  1  0.50152141  0.50063830  0.00022882  1
  Zn  Zn1  1  0.00315886  0.00025872  0.50048046  1
  Zn  Zn2  1  0.50153845  -0.00006267  0.00066884  1
  Cd  Cd3  1  0.00097153  0.50108128  0.50041459  1
