# generated using pymatgen
data_Zn3S
_symmetry_space_group_name_H-M   'P 1'
_cell_length_a   3.65356020
_cell_length_b   5.24438983
_cell_length_c   3.65356181
_cell_angle_alpha   89.99981819
_cell_angle_beta   90.00021419
_cell_angle_gamma   90.00023513
_symmetry_Int_Tables_number   1
_chemical_formula_structural   Zn3S
_chemical_formula_sum   'Zn3 S1'
_cell_volume   70.00477950
_cell_formula_units_Z   1
loop_
 _symmetry_equiv_pos_site_id
 _symmetry_equiv_pos_as_xyz
  1  'x, y, z'
loop_
 _atom_site_type_symbol
 _atom_site_label
 _atom_site_symmetry_multiplicity
 _atom_site_fract_x
 _atom_site_fract_y
 _atom_site_fract_z
 _atom_site_occupancy
  S  S0  1  0.50540054  0.49992826  0.00054541  1
  Zn  Zn1  1  0.00670102  -0.00000231  0.50066426  1
  Zn  Zn2  1  0.50750006  0.00002730  0.00066018  1
  Zn  Zn3  1  0.00514907  0.50008629  0.50054961  1
