# generated using pymatgen
data_Zn3S
_symmetry_space_group_name_H-M   'P 1'
_cell_length_a   3.65350697
_cell_length_b   5.24460876
_cell_length_c   3.65351242
_cell_angle_alpha   90.00003325
_cell_angle_beta   90.00031527
_cell_angle_gamma   89.99999374
_symmetry_Int_Tables_number   1
_chemical_formula_structural   Zn3S
_chemical_formula_sum   'Zn3 S1'
_cell_volume   70.00573572
_cell_formula_units_Z   1
loop_
 _symmetry_equiv_pos_site_id
 _symmetry_equiv_pos_as_xyz
  1  'x, y, z'
loop_
 _atom_site_type_symbol
 _atom_site_label
 _atom_site_symmetry_multiplicity
 _atom_site_fract_x
 _atom_site_fract_y
 _atom_site_fract_z
 _atom_site_occupancy
  S  S0  1  0.50320089  0.50231481  0.00083505  1
  Zn  Zn1  1  0.00291635  0.00223338  0.50082052  1
  Zn  Zn2  1  0.50229642  0.00293423  0.00055566  1
  Zn  Zn3  1  0.00340514  0.50221775  0.50079218  1
