# generated using pymatgen
data_Zn3S
_symmetry_space_group_name_H-M   'P 1'
_cell_length_a   3.65350514
_cell_length_b   5.24464880
_cell_length_c   3.65349951
_cell_angle_alpha   90.00003932
_cell_angle_beta   90.00002741
_cell_angle_gamma   89.99999533
_symmetry_Int_Tables_number   1
_chemical_formula_structural   Zn3S
_chemical_formula_sum   'Zn3 S1'
_cell_volume   70.00598775
_cell_formula_units_Z   1
loop_
 _symmetry_equiv_pos_site_id
 _symmetry_equiv_pos_as_xyz
  1  'x, y, z'
loop_
 _atom_site_type_symbol
 _atom_site_label
 _atom_site_symmetry_multiplicity
 _atom_site_fract_x
 _atom_site_fract_y
 _atom_site_fract_z
 _atom_site_occupancy
  S  S0  1  0.50081662  0.50455060  0.00016059  1
  Zn  Zn1  1  0.00029802  0.00460757  0.50036234  1
  Zn  Zn2  1  0.50025962  0.00394605  0.00053960  1
  Zn  Zn3  1  0.00080956  0.50458582  0.50014727  1
