# generated using pymatgen
data_Zn3S
_symmetry_space_group_name_H-M   'P 1'
_cell_length_a   3.65354152
_cell_length_b   5.24448812
_cell_length_c   3.65353592
_cell_angle_alpha   90.00012885
_cell_angle_beta   90.00004231
_cell_angle_gamma   90.00008648
_symmetry_Int_Tables_number   1
_chemical_formula_structural   Zn3S
_chemical_formula_sum   'Zn3 S1'
_cell_volume   70.00523775
_cell_formula_units_Z   1
loop_
 _symmetry_equiv_pos_site_id
 _symmetry_equiv_pos_as_xyz
  1  'x, y, z'
loop_
 _atom_site_type_symbol
 _atom_site_label
 _atom_site_symmetry_multiplicity
 _atom_site_fract_x
 _atom_site_fract_y
 _atom_site_fract_z
 _atom_site_occupancy
  S  S0  1  0.50254681  0.50011746  0.00658876  1
  Zn  Zn1  1  0.00252210  0.00042851  0.50685035  1
  Zn  Zn2  1  0.50252032  0.00049086  0.00664260  1
  Zn  Zn3  1  0.00247777  0.50054189  0.50650744  1
