# generated using pymatgen
data_ZnAsSeS
_symmetry_space_group_name_H-M   'P 1'
_cell_length_a   5.22229680
_cell_length_b   4.53969047
_cell_length_c   5.22229753
_cell_angle_alpha   90.00000824
_cell_angle_beta   89.99999955
_cell_angle_gamma   89.99999987
_symmetry_Int_Tables_number   1
_chemical_formula_structural   ZnAsSeS
_chemical_formula_sum   'Zn1 As1 Se1 S1'
_cell_volume   123.80819846
_cell_formula_units_Z   1
loop_
 _symmetry_equiv_pos_site_id
 _symmetry_equiv_pos_as_xyz
  1  'x, y, z'
loop_
 _atom_site_type_symbol
 _atom_site_label
 _atom_site_symmetry_multiplicity
 _atom_site_fract_x
 _atom_site_fract_y
 _atom_site_fract_z
 _atom_site_occupancy
  S  S0  1  0.50000004  0.49999995  0.00000002  1
  Zn  Zn1  1  0.00000032  0.00000068  0.49999998  1
  As  As2  1  0.50000003  0.00000007  0.00000090  1
  Se  Se3  1  0.00000031  0.50000043  0.50000007  1
