# generated using pymatgen
data_ZnAsS2
_symmetry_space_group_name_H-M   'P 1'
_cell_length_a   5.13136777
_cell_length_b   4.31800947
_cell_length_c   5.13136590
_cell_angle_alpha   90.00000451
_cell_angle_beta   90.00003069
_cell_angle_gamma   89.99996507
_symmetry_Int_Tables_number   1
_chemical_formula_structural   ZnAsS2
_chemical_formula_sum   'Zn1 As1 S2'
_cell_volume   113.69718594
_cell_formula_units_Z   1
loop_
 _symmetry_equiv_pos_site_id
 _symmetry_equiv_pos_as_xyz
  1  'x, y, z'
loop_
 _atom_site_type_symbol
 _atom_site_label
 _atom_site_symmetry_multiplicity
 _atom_site_fract_x
 _atom_site_fract_y
 _atom_site_fract_z
 _atom_site_occupancy
  S  S0  1  0.50000291  0.50000447  0.00000166  1
  Zn  Zn1  1  0.00000803  0.00006944  0.49999875  1
  As  As2  1  0.50000216  0.00001175  0.00001707  1
  S  S3  1  0.00005264  0.50003531  0.50000082  1
