# generated using pymatgen
data_ZnAsSe2
_symmetry_space_group_name_H-M   'P 1'
_cell_length_a   4.74306275
_cell_length_b   4.74810003
_cell_length_c   4.74306037
_cell_angle_alpha   89.99992683
_cell_angle_beta   90.00239066
_cell_angle_gamma   89.99991814
_symmetry_Int_Tables_number   1
_chemical_formula_structural   ZnAsSe2
_chemical_formula_sum   'Zn1 As1 Se2'
_cell_volume   106.81626350
_cell_formula_units_Z   1
loop_
 _symmetry_equiv_pos_site_id
 _symmetry_equiv_pos_as_xyz
  1  'x, y, z'
loop_
 _atom_site_type_symbol
 _atom_site_label
 _atom_site_symmetry_multiplicity
 _atom_site_fract_x
 _atom_site_fract_y
 _atom_site_fract_z
 _atom_site_occupancy
  Se  Se0  1  0.50000060  0.49999989  -0.00000019  1
  Zn  Zn1  1  0.00000912  0.00000222  0.49999823  1
  As  As2  1  0.49999895  0.00000070  0.00001509  1
  Se  Se3  1  0.00000427  0.50000125  0.50000021  1
