# generated using pymatgen
data_ZnAsSe2
_symmetry_space_group_name_H-M   'P 1'
_cell_length_a   4.74306205
_cell_length_b   4.74810117
_cell_length_c   4.74307082
_cell_angle_alpha   89.99997845
_cell_angle_beta   90.00240357
_cell_angle_gamma   90.00002902
_symmetry_Int_Tables_number   1
_chemical_formula_structural   ZnAsSe2
_chemical_formula_sum   'Zn1 As1 Se2'
_cell_volume   106.81650897
_cell_formula_units_Z   1
loop_
 _symmetry_equiv_pos_site_id
 _symmetry_equiv_pos_as_xyz
  1  'x, y, z'
loop_
 _atom_site_type_symbol
 _atom_site_label
 _atom_site_symmetry_multiplicity
 _atom_site_fract_x
 _atom_site_fract_y
 _atom_site_fract_z
 _atom_site_occupancy
  Se  Se0  1  0.50000504  0.50001779  0.00008289  1
  Zn  Zn1  1  0.00005634  0.00000935  0.49999811  1
  As  As2  1  0.49999366  0.00007829  0.00003216  1
  Se  Se3  1  0.00005829  0.50000499  0.50000598  1
