# generated using pymatgen
data_ZnAsSeS
_symmetry_space_group_name_H-M   'P 1'
_cell_length_a   5.22223596
_cell_length_b   4.53970013
_cell_length_c   5.22232930
_cell_angle_alpha   90.00006485
_cell_angle_beta   89.99998838
_cell_angle_gamma   89.99938422
_symmetry_Int_Tables_number   1
_chemical_formula_structural   ZnAsSeS
_chemical_formula_sum   'Zn1 As1 Se1 S1'
_cell_volume   123.80777281
_cell_formula_units_Z   1
loop_
 _symmetry_equiv_pos_site_id
 _symmetry_equiv_pos_as_xyz
  1  'x, y, z'
loop_
 _atom_site_type_symbol
 _atom_site_label
 _atom_site_symmetry_multiplicity
 _atom_site_fract_x
 _atom_site_fract_y
 _atom_site_fract_z
 _atom_site_occupancy
  S  S0  1  0.50002101  0.50000618  0.00016444  1
  Zn  Zn1  1  0.00026920  0.00059019  0.49999388  1
  As  As2  1  0.50004331  0.00056182  0.00019187  1
  Se  Se3  1  0.00058222  0.50044118  0.50002173  1
