# generated using pymatgen
data_ZnAsSeS
_symmetry_space_group_name_H-M   'P 1'
_cell_length_a   5.22228388
_cell_length_b   4.53968855
_cell_length_c   5.22228663
_cell_angle_alpha   90.00000599
_cell_angle_beta   90.00000156
_cell_angle_gamma   90.00000304
_symmetry_Int_Tables_number   1
_chemical_formula_structural   ZnAsSeS
_chemical_formula_sum   'Zn1 As1 Se1 S1'
_cell_volume   123.80758152
_cell_formula_units_Z   1
loop_
 _symmetry_equiv_pos_site_id
 _symmetry_equiv_pos_as_xyz
  1  'x, y, z'
loop_
 _atom_site_type_symbol
 _atom_site_label
 _atom_site_symmetry_multiplicity
 _atom_site_fract_x
 _atom_site_fract_y
 _atom_site_fract_z
 _atom_site_occupancy
  S  S0  1  0.50000400  0.49997700  0.00000037  1
  Zn  Zn1  1  -0.00000075  0.00077095  0.49999998  1
  As  As2  1  0.50000760  0.00003416  0.00000075  1
  Se  Se3  1  0.00005690  0.50075046  0.50000013  1
