# generated using pymatgen
data_ZnAsSeS
_symmetry_space_group_name_H-M   'P 1'
_cell_length_a   5.22229572
_cell_length_b   4.53969060
_cell_length_c   5.22229556
_cell_angle_alpha   90.00000733
_cell_angle_beta   89.99999963
_cell_angle_gamma   90.00000650
_symmetry_Int_Tables_number   1
_chemical_formula_structural   ZnAsSeS
_chemical_formula_sum   'Zn1 As1 Se1 S1'
_cell_volume   123.80812963
_cell_formula_units_Z   1
loop_
 _symmetry_equiv_pos_site_id
 _symmetry_equiv_pos_as_xyz
  1  'x, y, z'
loop_
 _atom_site_type_symbol
 _atom_site_label
 _atom_site_symmetry_multiplicity
 _atom_site_fract_x
 _atom_site_fract_y
 _atom_site_fract_z
 _atom_site_occupancy
  S  S0  1  0.50000006  0.50000007  0.00000102  1
  Zn  Zn1  1  0.00000078  0.00000043  0.49999943  1
  As  As2  1  0.50000005  0.00000202  0.00003348  1
  Se  Se3  1  0.00000073  0.50000031  0.50000225  1
