# generated using pymatgen
data_ZnAsSeS
_symmetry_space_group_name_H-M   'P 1'
_cell_length_a   5.22227601
_cell_length_b   4.53968866
_cell_length_c   5.22229459
_cell_angle_alpha   89.99999606
_cell_angle_beta   90.00003581
_cell_angle_gamma   89.99986368
_symmetry_Int_Tables_number   1
_chemical_formula_structural   ZnAsSeS
_chemical_formula_sum   'Zn1 As1 Se1 S1'
_cell_volume   123.80758654
_cell_formula_units_Z   1
loop_
 _symmetry_equiv_pos_site_id
 _symmetry_equiv_pos_as_xyz
  1  'x, y, z'
loop_
 _atom_site_type_symbol
 _atom_site_label
 _atom_site_symmetry_multiplicity
 _atom_site_fract_x
 _atom_site_fract_y
 _atom_site_fract_z
 _atom_site_occupancy
  S  S0  1  0.50000807  0.49997295  0.00001474  1
  Zn  Zn1  1  0.00024137  0.00090691  0.49999894  1
  As  As2  1  0.50002862  0.00004553  0.00004945  1
  Se  Se3  1  0.00021887  0.50088309  0.50000748  1
