# generated using pymatgen
data_ZnAsSeS
_symmetry_space_group_name_H-M   'P 1'
_cell_length_a   5.22230387
_cell_length_b   4.53969111
_cell_length_c   5.22228328
_cell_angle_alpha   89.99999315
_cell_angle_beta   89.99992851
_cell_angle_gamma   90.00001963
_symmetry_Int_Tables_number   1
_chemical_formula_structural   ZnAsSeS
_chemical_formula_sum   'Zn1 As1 Se1 S1'
_cell_volume   123.80804566
_cell_formula_units_Z   1
loop_
 _symmetry_equiv_pos_site_id
 _symmetry_equiv_pos_as_xyz
  1  'x, y, z'
loop_
 _atom_site_type_symbol
 _atom_site_label
 _atom_site_symmetry_multiplicity
 _atom_site_fract_x
 _atom_site_fract_y
 _atom_site_fract_z
 _atom_site_occupancy
  S  S0  1  0.49999930  0.49999863  0.00000615  1
  Zn  Zn1  1  0.00012535  0.00010345  0.49999384  1
  As  As2  1  0.50000043  0.00000125  0.00037145  1
  Se  Se3  1  0.00002944  0.50006535  0.50002477  1
