# generated using pymatgen
data_ZnAsSeS
_symmetry_space_group_name_H-M   'P 1'
_cell_length_a   5.22229787
_cell_length_b   4.53969077
_cell_length_c   5.22229597
_cell_angle_alpha   90.00002446
_cell_angle_beta   90.00000214
_cell_angle_gamma   89.99998908
_symmetry_Int_Tables_number   1
_chemical_formula_structural   ZnAsSeS
_chemical_formula_sum   'Zn1 As1 Se1 S1'
_cell_volume   123.80819496
_cell_formula_units_Z   1
loop_
 _symmetry_equiv_pos_site_id
 _symmetry_equiv_pos_as_xyz
  1  'x, y, z'
loop_
 _atom_site_type_symbol
 _atom_site_label
 _atom_site_symmetry_multiplicity
 _atom_site_fract_x
 _atom_site_fract_y
 _atom_site_fract_z
 _atom_site_occupancy
  S  S0  1  0.50000132  0.50000591  0.00022155  1
  Zn  Zn1  1  0.00003064  0.00005438  0.49999631  1
  As  As2  1  0.50000267  0.00018417  0.00001197  1
  Se  Se3  1  0.00004542  0.50003899  0.50000862  1
