# generated using pymatgen
data_ZnAsSO
_symmetry_space_group_name_H-M   'P 1'
_cell_length_a   5.33040741
_cell_length_b   4.35189132
_cell_length_c   5.33051000
_cell_angle_alpha   90.00018520
_cell_angle_beta   90.00015676
_cell_angle_gamma   89.99961545
_symmetry_Int_Tables_number   1
_chemical_formula_structural   ZnAsSO
_chemical_formula_sum   'Zn1 As1 S1 O1'
_cell_volume   123.65372608
_cell_formula_units_Z   1
loop_
 _symmetry_equiv_pos_site_id
 _symmetry_equiv_pos_as_xyz
  1  'x, y, z'
loop_
 _atom_site_type_symbol
 _atom_site_label
 _atom_site_symmetry_multiplicity
 _atom_site_fract_x
 _atom_site_fract_y
 _atom_site_fract_z
 _atom_site_occupancy
  O  O0  1  0.50000487  0.50014017  0.00002918  1
  Zn  Zn1  1  0.00000593  0.00007073  0.50001482  1
  S  S2  1  0.50000317  0.00013742  0.00001588  1
  As  As3  1  0.00000973  0.50006802  0.50000884  1
