# generated using pymatgen
data_ZnAsSe2
_symmetry_space_group_name_H-M   'P 1'
_cell_length_a   4.74303377
_cell_length_b   4.74810257
_cell_length_c   4.74308471
_cell_angle_alpha   90.00000339
_cell_angle_beta   90.00128541
_cell_angle_gamma   89.99998664
_symmetry_Int_Tables_number   1
_chemical_formula_structural   ZnAsSe2
_chemical_formula_sum   'Zn1 As1 Se2'
_cell_volume   106.81621650
_cell_formula_units_Z   1
loop_
 _symmetry_equiv_pos_site_id
 _symmetry_equiv_pos_as_xyz
  1  'x, y, z'
loop_
 _atom_site_type_symbol
 _atom_site_label
 _atom_site_symmetry_multiplicity
 _atom_site_fract_x
 _atom_site_fract_y
 _atom_site_fract_z
 _atom_site_occupancy
  Se  Se0  1  0.50000254  0.50000233  0.00000259  1
  Zn  Zn1  1  0.00001989  0.00000800  0.49999718  1
  As  As2  1  0.49999780  0.00000978  0.00002467  1
  Se  Se3  1  0.00003133  0.50000429  0.50000056  1
