# generated using pymatgen
data_ZnAsSeS
_symmetry_space_group_name_H-M   'P 1'
_cell_length_a   5.22708734
_cell_length_b   4.53965578
_cell_length_c   5.21755011
_cell_angle_alpha   89.99952181
_cell_angle_beta   89.99883903
_cell_angle_gamma   90.00062887
_symmetry_Int_Tables_number   1
_chemical_formula_structural   ZnAsSeS
_chemical_formula_sum   'Zn1 As1 Se1 S1'
_cell_volume   123.80817150
_cell_formula_units_Z   1
loop_
 _symmetry_equiv_pos_site_id
 _symmetry_equiv_pos_as_xyz
  1  'x, y, z'
loop_
 _atom_site_type_symbol
 _atom_site_label
 _atom_site_symmetry_multiplicity
 _atom_site_fract_x
 _atom_site_fract_y
 _atom_site_fract_z
 _atom_site_occupancy
  S  S0  1  0.49970660  0.49995695  0.00042861  1
  Zn  Zn1  1  0.00201863  0.00012265  0.50003542  1
  As  As2  1  0.50007450  0.00010800  0.00069809  1
  Se  Se3  1  -0.00025594  0.50007370  0.50126756  1
