# generated using pymatgen
data_ZnAsSeS
_symmetry_space_group_name_H-M   'P 1'
_cell_length_a   5.22228586
_cell_length_b   4.53969028
_cell_length_c   5.22230764
_cell_angle_alpha   90.00000207
_cell_angle_beta   90.00002012
_cell_angle_gamma   89.99986481
_symmetry_Int_Tables_number   1
_chemical_formula_structural   ZnAsSeS
_chemical_formula_sum   'Zn1 As1 Se1 S1'
_cell_volume   123.80817349
_cell_formula_units_Z   1
loop_
 _symmetry_equiv_pos_site_id
 _symmetry_equiv_pos_as_xyz
  1  'x, y, z'
loop_
 _atom_site_type_symbol
 _atom_site_label
 _atom_site_symmetry_multiplicity
 _atom_site_fract_x
 _atom_site_fract_y
 _atom_site_fract_z
 _atom_site_occupancy
  S  S0  1  0.50001255  0.50000065  0.00008983  1
  Zn  Zn1  1  0.00001376  0.00011086  0.49999547  1
  As  As2  1  0.50002184  0.00005914  0.00019046  1
  Se  Se3  1  0.00033027  0.50007148  0.50001577  1
