# generated using pymatgen
data_ZnCd2S
_symmetry_space_group_name_H-M   'P 1'
_cell_length_a   3.91805415
_cell_length_b   5.63858416
_cell_length_c   3.91808414
_cell_angle_alpha   90.00009308
_cell_angle_beta   90.00057130
_cell_angle_gamma   90.00006353
_symmetry_Int_Tables_number   1
_chemical_formula_structural   ZnCd2S
_chemical_formula_sum   'Zn1 Cd2 S1'
_cell_volume   86.55940432
_cell_formula_units_Z   1
loop_
 _symmetry_equiv_pos_site_id
 _symmetry_equiv_pos_as_xyz
  1  'x, y, z'
loop_
 _atom_site_type_symbol
 _atom_site_label
 _atom_site_symmetry_multiplicity
 _atom_site_fract_x
 _atom_site_fract_y
 _atom_site_fract_z
 _atom_site_occupancy
  S  S0  1  0.49994943  0.50001127  0.00000435  1
  Zn  Zn1  1  0.00006338  0.00002403  0.50008825  1
  Cd  Cd2  1  0.50001305  0.00000754  0.00063209  1
  Cd  Cd3  1  0.00029145  0.50002671  0.50000807  1
