# generated using pymatgen
data_ZnCdSe2
_symmetry_space_group_name_H-M   'P 1'
_cell_length_a   4.99468950
_cell_length_b   5.16626591
_cell_length_c   5.08355067
_cell_angle_alpha   89.09554172
_cell_angle_beta   87.73506190
_cell_angle_gamma   91.70639471
_symmetry_Int_Tables_number   1
_chemical_formula_structural   ZnCdSe2
_chemical_formula_sum   'Zn1 Cd1 Se2'
_cell_volume   130.99590478
_cell_formula_units_Z   1
loop_
 _symmetry_equiv_pos_site_id
 _symmetry_equiv_pos_as_xyz
  1  'x, y, z'
loop_
 _atom_site_type_symbol
 _atom_site_label
 _atom_site_symmetry_multiplicity
 _atom_site_fract_x
 _atom_site_fract_y
 _atom_site_fract_z
 _atom_site_occupancy
  Se  Se0  1  0.49998486  0.50000962  0.00002215  1
  Zn  Zn1  1  0.00005216  0.00003662  0.50003147  1
  Cd  Cd2  1  0.50001001  0.00001478  0.00038433  1
  Se  Se3  1  0.00001148  0.49998605  0.50001636  1
