# generated using pymatgen
data_ZnCdSe2
_symmetry_space_group_name_H-M   'P 1'
_cell_length_a   5.03791900
_cell_length_b   5.16554538
_cell_length_c   5.02056003
_cell_angle_alpha   89.99999672
_cell_angle_beta   90.00002236
_cell_angle_gamma   89.99998881
_symmetry_Int_Tables_number   1
_chemical_formula_structural   ZnCdSe2
_chemical_formula_sum   'Zn1 Cd1 Se2'
_cell_volume   130.65304225
_cell_formula_units_Z   1
loop_
 _symmetry_equiv_pos_site_id
 _symmetry_equiv_pos_as_xyz
  1  'x, y, z'
loop_
 _atom_site_type_symbol
 _atom_site_label
 _atom_site_symmetry_multiplicity
 _atom_site_fract_x
 _atom_site_fract_y
 _atom_site_fract_z
 _atom_site_occupancy
  Se  Se0  1  0.50000855  0.50003959  0.00002074  1
  Zn  Zn1  1  0.00000712  -0.00000632  0.49999882  1
  Cd  Cd2  1  0.49999723  0.00003863  0.00003575  1
  Se  Se3  1  0.00000792  0.49998412  0.50001711  1
