# generated using pymatgen
data_ZnCd2S
_symmetry_space_group_name_H-M   'P 1'
_cell_length_a   3.91809416
_cell_length_b   5.63860625
_cell_length_c   3.91803878
_cell_angle_alpha   90.00005472
_cell_angle_beta   90.00009211
_cell_angle_gamma   90.00012107
_symmetry_Int_Tables_number   1
_chemical_formula_structural   ZnCd2S
_chemical_formula_sum   'Zn1 Cd2 S1'
_cell_volume   86.55962515
_cell_formula_units_Z   1
loop_
 _symmetry_equiv_pos_site_id
 _symmetry_equiv_pos_as_xyz
  1  'x, y, z'
loop_
 _atom_site_type_symbol
 _atom_site_label
 _atom_site_symmetry_multiplicity
 _atom_site_fract_x
 _atom_site_fract_y
 _atom_site_fract_z
 _atom_site_occupancy
  S  S0  1  0.49994007  0.49997607  0.00004534  1
  Zn  Zn1  1  -0.00000016  0.00004296  0.50001110  1
  Cd  Cd2  1  0.50000398  0.00017290  0.00005010  1
  Cd  Cd3  1  0.00029282  0.50005067  0.49999048  1
