# generated using pymatgen
data_ZnCdGaS
_symmetry_space_group_name_H-M   'P 1'
_cell_length_a   3.73270317
_cell_length_b   7.20900606
_cell_length_c   3.76431922
_cell_angle_alpha   100.03007548
_cell_angle_beta   84.80396577
_cell_angle_gamma   95.73372678
_symmetry_Int_Tables_number   1
_chemical_formula_structural   ZnCdGaS
_chemical_formula_sum   'Zn1 Cd1 Ga1 S1'
_cell_volume   98.97010430
_cell_formula_units_Z   1
loop_
 _symmetry_equiv_pos_site_id
 _symmetry_equiv_pos_as_xyz
  1  'x, y, z'
loop_
 _atom_site_type_symbol
 _atom_site_label
 _atom_site_symmetry_multiplicity
 _atom_site_fract_x
 _atom_site_fract_y
 _atom_site_fract_z
 _atom_site_occupancy
  S  S0  1  0.50052879  0.50018913  0.00068403  1
  Zn  Zn1  1  0.00021223  0.00028394  0.49963303  1
  Ga  Ga2  1  0.50005531  -0.00029662  -0.00000829  1
  Cd  Cd3  1  -0.00074435  0.49984225  0.49981529  1
