# generated using pymatgen
data_ZnCdGaS
_symmetry_space_group_name_H-M   'P 1'
_cell_length_a   3.64331287
_cell_length_b   6.27152134
_cell_length_c   3.64329793
_cell_angle_alpha   89.98340267
_cell_angle_beta   89.99997248
_cell_angle_gamma   90.00362633
_symmetry_Int_Tables_number   1
_chemical_formula_structural   ZnCdGaS
_chemical_formula_sum   'Zn1 Cd1 Ga1 S1'
_cell_volume   83.24612756
_cell_formula_units_Z   1
loop_
 _symmetry_equiv_pos_site_id
 _symmetry_equiv_pos_as_xyz
  1  'x, y, z'
loop_
 _atom_site_type_symbol
 _atom_site_label
 _atom_site_symmetry_multiplicity
 _atom_site_fract_x
 _atom_site_fract_y
 _atom_site_fract_z
 _atom_site_occupancy
  Ga  Ga0  1  0.49987784  0.49999890  0.00003553  1
  Zn  Zn1  1  0.00010249  -0.00001111  0.50001512  1
  S  S2  1  0.50017961  -0.00010603  0.00001712  1
  Cd  Cd3  1  -0.00011742  0.50013942  0.50007435  1
