# generated using pymatgen
data_ZnCd2S
_symmetry_space_group_name_H-M   'P 1'
_cell_length_a   3.91811081
_cell_length_b   5.63835949
_cell_length_c   3.91816362
_cell_angle_alpha   90.00002838
_cell_angle_beta   90.00103704
_cell_angle_gamma   90.00007188
_symmetry_Int_Tables_number   1
_chemical_formula_structural   ZnCd2S
_chemical_formula_sum   'Zn1 Cd2 S1'
_cell_volume   86.55896302
_cell_formula_units_Z   1
loop_
 _symmetry_equiv_pos_site_id
 _symmetry_equiv_pos_as_xyz
  1  'x, y, z'
loop_
 _atom_site_type_symbol
 _atom_site_label
 _atom_site_symmetry_multiplicity
 _atom_site_fract_x
 _atom_site_fract_y
 _atom_site_fract_z
 _atom_site_occupancy
  S  S0  1  0.49996413  0.49990150  0.00028851  1
  Zn  Zn1  1  0.00020313  0.00009708  0.50008248  1
  Cd  Cd2  1  0.50003083  0.00061108  0.00044858  1
  Cd  Cd3  1  0.00031800  0.50011188  0.49994468  1
