# generated using pymatgen
data_ZnCdSe2
_symmetry_space_group_name_H-M   'P 1'
_cell_length_a   4.49618967
_cell_length_b   5.28925643
_cell_length_c   4.49621193
_cell_angle_alpha   90.00039653
_cell_angle_beta   72.22265148
_cell_angle_gamma   90.00042901
_symmetry_Int_Tables_number   1
_chemical_formula_structural   ZnCdSe2
_chemical_formula_sum   'Zn1 Cd1 Se2'
_cell_volume   101.82093490
_cell_formula_units_Z   1
loop_
 _symmetry_equiv_pos_site_id
 _symmetry_equiv_pos_as_xyz
  1  'x, y, z'
loop_
 _atom_site_type_symbol
 _atom_site_label
 _atom_site_symmetry_multiplicity
 _atom_site_fract_x
 _atom_site_fract_y
 _atom_site_fract_z
 _atom_site_occupancy
  Cd  Cd0  1  0.50000524  0.50020731  -0.00008208  1
  Zn  Zn1  1  0.00010849  0.00008601  0.50002367  1
  Se  Se2  1  0.50017858  0.00016984  -0.00002080  1
  Se  Se3  1  0.00045082  0.50012857  0.50009828  1
