# generated using pymatgen
data_ZnCd2S
_symmetry_space_group_name_H-M   'P 1'
_cell_length_a   3.91800440
_cell_length_b   5.63860218
_cell_length_c   3.91811970
_cell_angle_alpha   89.99987077
_cell_angle_beta   90.00044398
_cell_angle_gamma   89.99987724
_symmetry_Int_Tables_number   1
_chemical_formula_structural   ZnCd2S
_chemical_formula_sum   'Zn1 Cd2 S1'
_cell_volume   86.55936739
_cell_formula_units_Z   1
loop_
 _symmetry_equiv_pos_site_id
 _symmetry_equiv_pos_as_xyz
  1  'x, y, z'
loop_
 _atom_site_type_symbol
 _atom_site_label
 _atom_site_symmetry_multiplicity
 _atom_site_fract_x
 _atom_site_fract_y
 _atom_site_fract_z
 _atom_site_occupancy
  S  S0  1  0.49999338  0.50000149  0.00005067  1
  Zn  Zn1  1  0.00009832  0.00000352  0.50000738  1
  Cd  Cd2  1  0.50001581  0.00000193  0.00001961  1
  Cd  Cd3  1  0.00009657  0.50000408  0.49998873  1
