# generated using pymatgen
data_ZnCd2S
_symmetry_space_group_name_H-M   'P 1'
_cell_length_a   3.91804831
_cell_length_b   5.63859719
_cell_length_c   3.91808040
_cell_angle_alpha   90.00001719
_cell_angle_beta   90.00126505
_cell_angle_gamma   90.00002982
_symmetry_Int_Tables_number   1
_chemical_formula_structural   ZnCd2S
_chemical_formula_sum   'Zn1 Cd2 S1'
_cell_volume   86.55939262
_cell_formula_units_Z   1
loop_
 _symmetry_equiv_pos_site_id
 _symmetry_equiv_pos_as_xyz
  1  'x, y, z'
loop_
 _atom_site_type_symbol
 _atom_site_label
 _atom_site_symmetry_multiplicity
 _atom_site_fract_x
 _atom_site_fract_y
 _atom_site_fract_z
 _atom_site_occupancy
  S  S0  1  0.50000003  0.49999940  0.00000008  1
  Zn  Zn1  1  0.00000304  -0.00000002  0.50000010  1
  Cd  Cd2  1  0.50000062  0.00000107  0.00000141  1
  Cd  Cd3  1  0.00000148  0.50000036  0.50000004  1
