# generated using pymatgen
data_ZnCdSe2
_symmetry_space_group_name_H-M   'P 1'
_cell_length_a   4.24693476
_cell_length_b   5.14372503
_cell_length_c   4.24694021
_cell_angle_alpha   90.00265370
_cell_angle_beta   90.00742802
_cell_angle_gamma   89.99872389
_symmetry_Int_Tables_number   1
_chemical_formula_structural   ZnCdSe2
_chemical_formula_sum   'Zn1 Cd1 Se2'
_cell_volume   92.77468228
_cell_formula_units_Z   1
loop_
 _symmetry_equiv_pos_site_id
 _symmetry_equiv_pos_as_xyz
  1  'x, y, z'
loop_
 _atom_site_type_symbol
 _atom_site_label
 _atom_site_symmetry_multiplicity
 _atom_site_fract_x
 _atom_site_fract_y
 _atom_site_fract_z
 _atom_site_occupancy
  Cd  Cd0  1  0.49978640  0.50001243  0.00032180  1
  Zn  Zn1  1  -0.00002077  -0.00000092  0.49983386  1
  Se  Se2  1  0.50020928  0.00002478  0.00016058  1
  Se  Se3  1  0.00018885  0.50000999  0.49985552  1
