# generated using pymatgen
data_ZnCdS2
_symmetry_space_group_name_H-M   'P 1'
_cell_length_a   5.11115877
_cell_length_b   4.55908832
_cell_length_c   5.11115234
_cell_angle_alpha   90.00038688
_cell_angle_beta   90.00024888
_cell_angle_gamma   90.00048237
_symmetry_Int_Tables_number   1
_chemical_formula_structural   ZnCdS2
_chemical_formula_sum   'Zn1 Cd1 S2'
_cell_volume   119.10121794
_cell_formula_units_Z   1
loop_
 _symmetry_equiv_pos_site_id
 _symmetry_equiv_pos_as_xyz
  1  'x, y, z'
loop_
 _atom_site_type_symbol
 _atom_site_label
 _atom_site_symmetry_multiplicity
 _atom_site_fract_x
 _atom_site_fract_y
 _atom_site_fract_z
 _atom_site_occupancy
  S  S0  1  0.49999246  0.50000055  0.00000978  1
  Zn  Zn1  1  0.00013324  0.00002142  0.50000116  1
  Cd  Cd2  1  0.50000758  0.00000073  0.00004702  1
  S  S3  1  0.00002394  0.49999989  0.49999971  1
