# generated using pymatgen
data_ZnCdS2
_symmetry_space_group_name_H-M   'P 1'
_cell_length_a   5.11105866
_cell_length_b   4.55908263
_cell_length_c   5.11128574
_cell_angle_alpha   89.99870321
_cell_angle_beta   90.00076441
_cell_angle_gamma   89.99964530
_symmetry_Int_Tables_number   1
_chemical_formula_structural   ZnCdS2
_chemical_formula_sum   'Zn1 Cd1 S2'
_cell_volume   119.10184493
_cell_formula_units_Z   1
loop_
 _symmetry_equiv_pos_site_id
 _symmetry_equiv_pos_as_xyz
  1  'x, y, z'
loop_
 _atom_site_type_symbol
 _atom_site_label
 _atom_site_symmetry_multiplicity
 _atom_site_fract_x
 _atom_site_fract_y
 _atom_site_fract_z
 _atom_site_occupancy
  S  S0  1  0.49996295  0.50000571  -0.00008787  1
  Zn  Zn1  1  0.00067128  0.00002118  0.50001812  1
  Cd  Cd2  1  0.50003697  0.00000582  0.00049093  1
  S  S3  1  0.00012061  0.49999947  0.49995899  1
