# generated using pymatgen
data_ZnCd2S
_symmetry_space_group_name_H-M   'P 1'
_cell_length_a   3.91809135
_cell_length_b   5.63856162
_cell_length_c   3.91805572
_cell_angle_alpha   90.00003015
_cell_angle_beta   90.00039129
_cell_angle_gamma   90.00004764
_symmetry_Int_Tables_number   1
_chemical_formula_structural   ZnCd2S
_chemical_formula_sum   'Zn1 Cd2 S1'
_cell_volume   86.55925221
_cell_formula_units_Z   1
loop_
 _symmetry_equiv_pos_site_id
 _symmetry_equiv_pos_as_xyz
  1  'x, y, z'
loop_
 _atom_site_type_symbol
 _atom_site_label
 _atom_site_symmetry_multiplicity
 _atom_site_fract_x
 _atom_site_fract_y
 _atom_site_fract_z
 _atom_site_occupancy
  S  S0  1  0.49997564  0.49999473  0.00030968  1
  Zn  Zn1  1  0.00012954  0.00000253  0.50004202  1
  Cd  Cd2  1  0.50002138  0.00002205  0.00010240  1
  Cd  Cd3  1  0.00020503  0.50000325  0.49993213  1
