# generated using pymatgen
data_ZnCd2S
_symmetry_space_group_name_H-M   'P 1'
_cell_length_a   3.91801828
_cell_length_b   5.63869318
_cell_length_c   3.91806453
_cell_angle_alpha   90.00007262
_cell_angle_beta   89.99972883
_cell_angle_gamma   89.99994204
_symmetry_Int_Tables_number   1
_chemical_formula_structural   ZnCd2S
_chemical_formula_sum   'Zn1 Cd2 S1'
_cell_volume   86.55985220
_cell_formula_units_Z   1
loop_
 _symmetry_equiv_pos_site_id
 _symmetry_equiv_pos_as_xyz
  1  'x, y, z'
loop_
 _atom_site_type_symbol
 _atom_site_label
 _atom_site_symmetry_multiplicity
 _atom_site_fract_x
 _atom_site_fract_y
 _atom_site_fract_z
 _atom_site_occupancy
  S  S0  1  0.49996692  0.49999939  0.00002815  1
  Zn  Zn1  1  0.00002360  0.00000212  0.50000382  1
  Cd  Cd2  1  0.50000584  0.00000495  0.00000985  1
  Cd  Cd3  1  0.00017656  0.50000256  0.49999369  1
