# generated using pymatgen
data_ZnCdS2
_symmetry_space_group_name_H-M   'P 1'
_cell_length_a   5.11113252
_cell_length_b   4.55908913
_cell_length_c   5.11127324
_cell_angle_alpha   90.00067998
_cell_angle_beta   90.00384481
_cell_angle_gamma   89.99981405
_symmetry_Int_Tables_number   1
_chemical_formula_structural   ZnCdS2
_chemical_formula_sum   'Zn1 Cd1 S2'
_cell_volume   119.10344448
_cell_formula_units_Z   1
loop_
 _symmetry_equiv_pos_site_id
 _symmetry_equiv_pos_as_xyz
  1  'x, y, z'
loop_
 _atom_site_type_symbol
 _atom_site_label
 _atom_site_symmetry_multiplicity
 _atom_site_fract_x
 _atom_site_fract_y
 _atom_site_fract_z
 _atom_site_occupancy
  S  S0  1  0.50013857  0.50069231  0.00024146  1
  Zn  Zn1  1  0.00043929  0.00007909  0.50001452  1
  Cd  Cd2  1  0.49994169  0.00069281  0.00068267  1
  S  S3  1  0.00053730  0.49993341  0.50001668  1
