# generated using pymatgen
data_ZnCdSe2
_symmetry_space_group_name_H-M   'P 1'
_cell_length_a   4.49617503
_cell_length_b   5.28912276
_cell_length_c   4.49620502
_cell_angle_alpha   89.99978173
_cell_angle_beta   72.22635898
_cell_angle_gamma   89.99990627
_symmetry_Int_Tables_number   1
_chemical_formula_structural   ZnCdSe2
_chemical_formula_sum   'Zn1 Cd1 Se2'
_cell_volume   101.81998585
_cell_formula_units_Z   1
loop_
 _symmetry_equiv_pos_site_id
 _symmetry_equiv_pos_as_xyz
  1  'x, y, z'
loop_
 _atom_site_type_symbol
 _atom_site_label
 _atom_site_symmetry_multiplicity
 _atom_site_fract_x
 _atom_site_fract_y
 _atom_site_fract_z
 _atom_site_occupancy
  Cd  Cd0  1  0.50021374  0.50000192  -0.00002555  1
  Zn  Zn1  1  0.00189065  0.00000110  0.49951884  1
  Se  Se2  1  0.49894219  0.00000148  0.00048052  1
  Se  Se3  1  0.00020224  0.50000048  0.50004954  1
