# generated using pymatgen
data_ZnCdSe2
_symmetry_space_group_name_H-M   'P 1'
_cell_length_a   4.24700704
_cell_length_b   5.14385377
_cell_length_c   4.24700677
_cell_angle_alpha   90.00000323
_cell_angle_beta   89.99992040
_cell_angle_gamma   90.00005699
_symmetry_Int_Tables_number   1
_chemical_formula_structural   ZnCdSe2
_chemical_formula_sum   'Zn1 Cd1 Se2'
_cell_volume   92.78003832
_cell_formula_units_Z   1
loop_
 _symmetry_equiv_pos_site_id
 _symmetry_equiv_pos_as_xyz
  1  'x, y, z'
loop_
 _atom_site_type_symbol
 _atom_site_label
 _atom_site_symmetry_multiplicity
 _atom_site_fract_x
 _atom_site_fract_y
 _atom_site_fract_z
 _atom_site_occupancy
  Cd  Cd0  1  0.50000356  0.50000038  -0.00000879  1
  Zn  Zn1  1  0.00003616  0.00000082  0.49994223  1
  Se  Se2  1  0.49997356  0.00000017  0.00008594  1
  Se  Se3  1  0.00000021  0.50000060  0.50001031  1
