# generated using pymatgen
data_ZnCdS2
_symmetry_space_group_name_H-M   'P 1'
_cell_length_a   5.11115845
_cell_length_b   4.55908371
_cell_length_c   5.11114174
_cell_angle_alpha   89.99995876
_cell_angle_beta   90.00014591
_cell_angle_gamma   89.99963723
_symmetry_Int_Tables_number   1
_chemical_formula_structural   ZnCdS2
_chemical_formula_sum   'Zn1 Cd1 S2'
_cell_volume   119.10084307
_cell_formula_units_Z   1
loop_
 _symmetry_equiv_pos_site_id
 _symmetry_equiv_pos_as_xyz
  1  'x, y, z'
loop_
 _atom_site_type_symbol
 _atom_site_label
 _atom_site_symmetry_multiplicity
 _atom_site_fract_x
 _atom_site_fract_y
 _atom_site_fract_z
 _atom_site_occupancy
  S  S0  1  0.50002343  0.50029451  0.00011488  1
  Zn  Zn1  1  0.00002558  0.00010543  0.49999667  1
  Cd  Cd2  1  0.49998928  0.00029506  0.00000493  1
  S  S3  1  0.00007866  0.49997466  0.50002259  1
