# generated using pymatgen
data_ZnCd2S
_symmetry_space_group_name_H-M   'P 1'
_cell_length_a   3.91804989
_cell_length_b   5.63859339
_cell_length_c   3.91807980
_cell_angle_alpha   90.00004290
_cell_angle_beta   90.00076668
_cell_angle_gamma   90.00006529
_symmetry_Int_Tables_number   1
_chemical_formula_structural   ZnCd2S
_chemical_formula_sum   'Zn1 Cd2 S1'
_cell_volume   86.55935615
_cell_formula_units_Z   1
loop_
 _symmetry_equiv_pos_site_id
 _symmetry_equiv_pos_as_xyz
  1  'x, y, z'
loop_
 _atom_site_type_symbol
 _atom_site_label
 _atom_site_symmetry_multiplicity
 _atom_site_fract_x
 _atom_site_fract_y
 _atom_site_fract_z
 _atom_site_occupancy
  S  S0  1  0.49999100  0.49999536  0.00003339  1
  Zn  Zn1  1  0.00001586  0.00000124  0.50000574  1
  Cd  Cd2  1  0.50000296  0.00001726  0.00001960  1
  Cd  Cd3  1  0.00005461  0.50000183  0.49999275  1
