# generated using pymatgen
data_ZnCd2S
_symmetry_space_group_name_H-M   'P 1'
_cell_length_a   3.91807534
_cell_length_b   5.63857901
_cell_length_c   3.91805940
_cell_angle_alpha   89.99986408
_cell_angle_beta   90.00011361
_cell_angle_gamma   89.99998689
_symmetry_Int_Tables_number   1
_chemical_formula_structural   ZnCd2S
_chemical_formula_sum   'Zn1 Cd2 S1'
_cell_volume   86.55924665
_cell_formula_units_Z   1
loop_
 _symmetry_equiv_pos_site_id
 _symmetry_equiv_pos_as_xyz
  1  'x, y, z'
loop_
 _atom_site_type_symbol
 _atom_site_label
 _atom_site_symmetry_multiplicity
 _atom_site_fract_x
 _atom_site_fract_y
 _atom_site_fract_z
 _atom_site_occupancy
  S  S0  1  0.50000029  0.49997702  0.00000000  1
  Zn  Zn1  1  0.00000062  0.00000017  0.50000031  1
  Cd  Cd2  1  0.50000017  0.00007364  0.00000233  1
  Cd  Cd3  1  -0.00000004  0.50000214  0.50000006  1
