# generated using pymatgen
data_ZnCd2S
_symmetry_space_group_name_H-M   'P 1'
_cell_length_a   3.91802132
_cell_length_b   5.63862275
_cell_length_c   3.91809338
_cell_angle_alpha   90.00009364
_cell_angle_beta   90.00089823
_cell_angle_gamma   90.00011654
_symmetry_Int_Tables_number   1
_chemical_formula_structural   ZnCd2S
_chemical_formula_sum   'Zn1 Cd2 S1'
_cell_volume   86.55947555
_cell_formula_units_Z   1
loop_
 _symmetry_equiv_pos_site_id
 _symmetry_equiv_pos_as_xyz
  1  'x, y, z'
loop_
 _atom_site_type_symbol
 _atom_site_label
 _atom_site_symmetry_multiplicity
 _atom_site_fract_x
 _atom_site_fract_y
 _atom_site_fract_z
 _atom_site_occupancy
  S  S0  1  0.50000098  0.50000052  0.00014386  1
  Zn  Zn1  1  0.00002259  0.00001469  0.50001776  1
  Cd  Cd2  1  0.50000347  0.00002771  0.00003341  1
  Cd  Cd3  1  0.00000995  0.50001694  0.49996774  1
