# generated using pymatgen
data_ZnCd2S
_symmetry_space_group_name_H-M   'P 1'
_cell_length_a   3.91807810
_cell_length_b   5.63853969
_cell_length_c   3.91808089
_cell_angle_alpha   89.99998932
_cell_angle_beta   90.00066083
_cell_angle_gamma   90.00007392
_symmetry_Int_Tables_number   1
_chemical_formula_structural   ZnCd2S
_chemical_formula_sum   'Zn1 Cd2 S1'
_cell_volume   86.55917897
_cell_formula_units_Z   1
loop_
 _symmetry_equiv_pos_site_id
 _symmetry_equiv_pos_as_xyz
  1  'x, y, z'
loop_
 _atom_site_type_symbol
 _atom_site_label
 _atom_site_symmetry_multiplicity
 _atom_site_fract_x
 _atom_site_fract_y
 _atom_site_fract_z
 _atom_site_occupancy
  S  S0  1  0.49998958  0.50008901  -0.00000578  1
  Zn  Zn1  1  0.00007380  0.00015190  0.50014733  1
  Cd  Cd2  1  0.50001188  0.00000092  0.00106342  1
  Cd  Cd3  1  0.00010084  0.50016675  0.50001633  1
