# generated using pymatgen
data_ZnCdS2
_symmetry_space_group_name_H-M   'P 1'
_cell_length_a   5.11117438
_cell_length_b   4.55909322
_cell_length_c   5.11114898
_cell_angle_alpha   90.00008734
_cell_angle_beta   90.00029558
_cell_angle_gamma   89.99948728
_symmetry_Int_Tables_number   1
_chemical_formula_structural   ZnCdS2
_chemical_formula_sum   'Zn1 Cd1 S2'
_cell_volume   119.10163146
_cell_formula_units_Z   1
loop_
 _symmetry_equiv_pos_site_id
 _symmetry_equiv_pos_as_xyz
  1  'x, y, z'
loop_
 _atom_site_type_symbol
 _atom_site_label
 _atom_site_symmetry_multiplicity
 _atom_site_fract_x
 _atom_site_fract_y
 _atom_site_fract_z
 _atom_site_occupancy
  S  S0  1  0.50004052  0.50004441  0.00008043  1
  Zn  Zn1  1  0.00002752  0.00034957  0.49999884  1
  Cd  Cd2  1  0.49998049  0.00004613  0.00004131  1
  S  S3  1  0.00012572  0.49999791  0.50001431  1
