# generated using pymatgen
data_ZnCdSeS
_symmetry_space_group_name_H-M   'P 1'
_cell_length_a   4.66522632
_cell_length_b   4.91916913
_cell_length_c   4.66524552
_cell_angle_alpha   90.00023488
_cell_angle_beta   90.00011892
_cell_angle_gamma   90.00004492
_symmetry_Int_Tables_number   1
_chemical_formula_structural   ZnCdSeS
_chemical_formula_sum   'Zn1 Cd1 Se1 S1'
_cell_volume   107.06289320
_cell_formula_units_Z   1
loop_
 _symmetry_equiv_pos_site_id
 _symmetry_equiv_pos_as_xyz
  1  'x, y, z'
loop_
 _atom_site_type_symbol
 _atom_site_label
 _atom_site_symmetry_multiplicity
 _atom_site_fract_x
 _atom_site_fract_y
 _atom_site_fract_z
 _atom_site_occupancy
  S  S0  1  0.50005922  0.50029454  0.00001590  1
  Zn  Zn1  1  0.00001396  0.00005642  0.49999899  1
  Cd  Cd2  1  0.49997683  0.00029778  0.00001608  1
  Se  Se3  1  0.00016744  0.50001124  0.50000431  1
