# generated using pymatgen
data_ZnCdSe2
_symmetry_space_group_name_H-M   'P 1'
_cell_length_a   4.24696686
_cell_length_b   5.14386696
_cell_length_c   4.24698511
_cell_angle_alpha   90.00058273
_cell_angle_beta   90.00053431
_cell_angle_gamma   90.00039698
_symmetry_Int_Tables_number   1
_chemical_formula_structural   ZnCdSe2
_chemical_formula_sum   'Zn1 Cd1 Se2'
_cell_volume   92.77892548
_cell_formula_units_Z   1
loop_
 _symmetry_equiv_pos_site_id
 _symmetry_equiv_pos_as_xyz
  1  'x, y, z'
loop_
 _atom_site_type_symbol
 _atom_site_label
 _atom_site_symmetry_multiplicity
 _atom_site_fract_x
 _atom_site_fract_y
 _atom_site_fract_z
 _atom_site_occupancy
  Cd  Cd0  1  0.49996068  0.50023240  0.00004802  1
  Zn  Zn1  1  0.00010345  0.00018865  0.50000274  1
  Se  Se2  1  0.49998098  0.00022832  0.00000332  1
  Se  Se3  1  0.00016220  0.50016704  0.49998838  1
