# generated using pymatgen
data_ZnCd2S
_symmetry_space_group_name_H-M   'P 1'
_cell_length_a   3.91805906
_cell_length_b   5.63854755
_cell_length_c   3.91809669
_cell_angle_alpha   90.00020553
_cell_angle_beta   90.00044253
_cell_angle_gamma   90.00006857
_symmetry_Int_Tables_number   1
_chemical_formula_structural   ZnCd2S
_chemical_formula_sum   'Zn1 Cd2 S1'
_cell_volume   86.55922807
_cell_formula_units_Z   1
loop_
 _symmetry_equiv_pos_site_id
 _symmetry_equiv_pos_as_xyz
  1  'x, y, z'
loop_
 _atom_site_type_symbol
 _atom_site_label
 _atom_site_symmetry_multiplicity
 _atom_site_fract_x
 _atom_site_fract_y
 _atom_site_fract_z
 _atom_site_occupancy
  S  S0  1  0.50007979  0.50020141  -0.00000082  1
  Zn  Zn1  1  0.00058697  0.00033373  0.50002826  1
  Cd  Cd2  1  0.50008439  -0.00001502  0.00020475  1
  Cd  Cd3  1  -0.00000513  0.50036618  0.50000306  1
