# generated using pymatgen
data_ZnCdSeS
_symmetry_space_group_name_H-M   'P 1'
_cell_length_a   4.67731674
_cell_length_b   4.92369963
_cell_length_c   4.67879683
_cell_angle_alpha   90.69852023
_cell_angle_beta   90.44840733
_cell_angle_gamma   89.10670129
_symmetry_Int_Tables_number   1
_chemical_formula_structural   ZnCdSeS
_chemical_formula_sum   'Zn1 Cd1 Se1 S1'
_cell_volume   107.72705549
_cell_formula_units_Z   1
loop_
 _symmetry_equiv_pos_site_id
 _symmetry_equiv_pos_as_xyz
  1  'x, y, z'
loop_
 _atom_site_type_symbol
 _atom_site_label
 _atom_site_symmetry_multiplicity
 _atom_site_fract_x
 _atom_site_fract_y
 _atom_site_fract_z
 _atom_site_occupancy
  S  S0  1  0.49990240  0.50002815  0.00011339  1
  Zn  Zn1  1  0.00007409  0.00012736  0.50000654  1
  Cd  Cd2  1  0.50018781  0.00005840  -0.00016248  1
  Se  Se3  1  -0.00002909  0.49990241  0.50013384  1
