# generated using pymatgen
data_ZnCd2S
_symmetry_space_group_name_H-M   'P 1'
_cell_length_a   3.91804038
_cell_length_b   5.63846523
_cell_length_c   3.91815351
_cell_angle_alpha   90.00003822
_cell_angle_beta   89.99969821
_cell_angle_gamma   89.99984355
_symmetry_Int_Tables_number   1
_chemical_formula_structural   ZnCd2S
_chemical_formula_sum   'Zn1 Cd2 S1'
_cell_volume   86.55880701
_cell_formula_units_Z   1
loop_
 _symmetry_equiv_pos_site_id
 _symmetry_equiv_pos_as_xyz
  1  'x, y, z'
loop_
 _atom_site_type_symbol
 _atom_site_label
 _atom_site_symmetry_multiplicity
 _atom_site_fract_x
 _atom_site_fract_y
 _atom_site_fract_z
 _atom_site_occupancy
  S  S0  1  0.49999499  0.50001962  -0.00000014  1
  Zn  Zn1  1  0.00007012  0.00003525  0.50000287  1
  Cd  Cd2  1  0.50001045  0.00000015  0.00002223  1
  Cd  Cd3  1  0.00007098  0.50003869  0.50000028  1
