# generated using pymatgen
data_ZnCdGaS
_symmetry_space_group_name_H-M   'P 1'
_cell_length_a   3.70245229
_cell_length_b   6.94999515
_cell_length_c   3.70245124
_cell_angle_alpha   89.99999355
_cell_angle_beta   90.00016704
_cell_angle_gamma   90.00006373
_symmetry_Int_Tables_number   1
_chemical_formula_structural   ZnCdGaS
_chemical_formula_sum   'Zn1 Cd1 Ga1 S1'
_cell_volume   95.27156956
_cell_formula_units_Z   1
loop_
 _symmetry_equiv_pos_site_id
 _symmetry_equiv_pos_as_xyz
  1  'x, y, z'
loop_
 _atom_site_type_symbol
 _atom_site_label
 _atom_site_symmetry_multiplicity
 _atom_site_fract_x
 _atom_site_fract_y
 _atom_site_fract_z
 _atom_site_occupancy
  S  S0  1  0.50010432  0.49999758  -0.00000341  1
  Zn  Zn1  1  -0.00001384  0.00000652  0.50007242  1
  Ga  Ga2  1  0.50003278  0.00000092  0.00001894  1
  Cd  Cd3  1  -0.00001244  0.49999868  0.49998538  1
