# generated using pymatgen
data_ZnCdSeS
_symmetry_space_group_name_H-M   'P 1'
_cell_length_a   4.66527039
_cell_length_b   4.91916465
_cell_length_c   4.66521472
_cell_angle_alpha   89.99987704
_cell_angle_beta   89.99994762
_cell_angle_gamma   90.00048674
_symmetry_Int_Tables_number   1
_chemical_formula_structural   ZnCdSeS
_chemical_formula_sum   'Zn1 Cd1 Se1 S1'
_cell_volume   107.06310036
_cell_formula_units_Z   1
loop_
 _symmetry_equiv_pos_site_id
 _symmetry_equiv_pos_as_xyz
  1  'x, y, z'
loop_
 _atom_site_type_symbol
 _atom_site_label
 _atom_site_symmetry_multiplicity
 _atom_site_fract_x
 _atom_site_fract_y
 _atom_site_fract_z
 _atom_site_occupancy
  S  S0  1  0.50009541  0.49999832  -0.00000830  1
  Zn  Zn1  1  0.00020235  0.00007019  0.49999591  1
  Cd  Cd2  1  0.49995180  -0.00000182  0.00013076  1
  Se  Se3  1  0.00022447  0.50006207  0.49998629  1
