# generated using pymatgen
data_ZnCd2S
_symmetry_space_group_name_H-M   'P 1'
_cell_length_a   3.91805700
_cell_length_b   5.63849110
_cell_length_c   3.91816153
_cell_angle_alpha   90.00021453
_cell_angle_beta   89.99927333
_cell_angle_gamma   89.99989021
_symmetry_Int_Tables_number   1
_chemical_formula_structural   ZnCd2S
_chemical_formula_sum   'Zn1 Cd2 S1'
_cell_volume   86.55974844
_cell_formula_units_Z   1
loop_
 _symmetry_equiv_pos_site_id
 _symmetry_equiv_pos_as_xyz
  1  'x, y, z'
loop_
 _atom_site_type_symbol
 _atom_site_label
 _atom_site_symmetry_multiplicity
 _atom_site_fract_x
 _atom_site_fract_y
 _atom_site_fract_z
 _atom_site_occupancy
  S  S0  1  0.50011342  0.49995192  0.00098255  1
  Zn  Zn1  1  0.00099247  0.00017780  0.50012909  1
  Cd  Cd2  1  0.50014658  0.00054942  0.00028627  1
  Cd  Cd3  1  0.00010194  0.50020555  0.49978267  1
