# generated using pymatgen
data_ZnCd2S
_symmetry_space_group_name_H-M   'P 1'
_cell_length_a   3.91806778
_cell_length_b   5.63846079
_cell_length_c   3.91812248
_cell_angle_alpha   90.00007650
_cell_angle_beta   90.00158113
_cell_angle_gamma   90.00024120
_symmetry_Int_Tables_number   1
_chemical_formula_structural   ZnCd2S
_chemical_formula_sum   'Zn1 Cd2 S1'
_cell_volume   86.55865846
_cell_formula_units_Z   1
loop_
 _symmetry_equiv_pos_site_id
 _symmetry_equiv_pos_as_xyz
  1  'x, y, z'
loop_
 _atom_site_type_symbol
 _atom_site_label
 _atom_site_symmetry_multiplicity
 _atom_site_fract_x
 _atom_site_fract_y
 _atom_site_fract_z
 _atom_site_occupancy
  S  S0  1  0.49998185  0.49999956  0.00000204  1
  Zn  Zn1  1  0.00000943  0.00000394  0.50000382  1
  Cd  Cd2  1  0.50000256  0.00000749  0.00002815  1
  Cd  Cd3  1  0.00009884  0.50000454  0.49999993  1
