# generated using pymatgen
data_ZnCdS2
_symmetry_space_group_name_H-M   'P 1'
_cell_length_a   5.11357421
_cell_length_b   4.55910677
_cell_length_c   5.10916832
_cell_angle_alpha   90.00015719
_cell_angle_beta   90.00166022
_cell_angle_gamma   89.99991190
_symmetry_Int_Tables_number   1
_chemical_formula_structural   ZnCdS2
_chemical_formula_sum   'Zn1 Cd1 S2'
_cell_volume   119.11173119
_cell_formula_units_Z   1
loop_
 _symmetry_equiv_pos_site_id
 _symmetry_equiv_pos_as_xyz
  1  'x, y, z'
loop_
 _atom_site_type_symbol
 _atom_site_label
 _atom_site_symmetry_multiplicity
 _atom_site_fract_x
 _atom_site_fract_y
 _atom_site_fract_z
 _atom_site_occupancy
  S  S0  1  0.49999682  0.50051781  0.00128380  1
  Zn  Zn1  1  0.00029727  0.00005630  0.49999961  1
  Cd  Cd2  1  0.50000065  0.00051758  0.00103348  1
  S  S3  1  0.00005854  0.50007803  0.49988458  1
