# generated using pymatgen
data_ZnCdGaS
_symmetry_space_group_name_H-M   'P 1'
_cell_length_a   3.88785185
_cell_length_b   5.96198698
_cell_length_c   3.89995472
_cell_angle_alpha   88.49116888
_cell_angle_beta   97.87157376
_cell_angle_gamma   92.72660830
_symmetry_Int_Tables_number   1
_chemical_formula_structural   ZnCdGaS
_chemical_formula_sum   'Zn1 Cd1 Ga1 S1'
_cell_volume   89.42721530
_cell_formula_units_Z   1
loop_
 _symmetry_equiv_pos_site_id
 _symmetry_equiv_pos_as_xyz
  1  'x, y, z'
loop_
 _atom_site_type_symbol
 _atom_site_label
 _atom_site_symmetry_multiplicity
 _atom_site_fract_x
 _atom_site_fract_y
 _atom_site_fract_z
 _atom_site_occupancy
  S  S0  1  0.49987322  0.49999886  0.00016144  1
  Zn  Zn1  1  -0.00000456  0.00000805  0.50002981  1
  Ga  Ga2  1  0.50000700  0.00001760  0.00001207  1
  Cd  Cd3  1  0.00016414  0.50000739  0.49991032  1
