# generated using pymatgen
data_ZnCd2S
_symmetry_space_group_name_H-M   'P 1'
_cell_length_a   3.91804281
_cell_length_b   5.63856574
_cell_length_c   3.91810344
_cell_angle_alpha   90.00008117
_cell_angle_beta   90.00062625
_cell_angle_gamma   90.00009570
_symmetry_Int_Tables_number   1
_chemical_formula_structural   ZnCd2S
_chemical_formula_sum   'Zn1 Cd2 S1'
_cell_volume   86.55929727
_cell_formula_units_Z   1
loop_
 _symmetry_equiv_pos_site_id
 _symmetry_equiv_pos_as_xyz
  1  'x, y, z'
loop_
 _atom_site_type_symbol
 _atom_site_label
 _atom_site_symmetry_multiplicity
 _atom_site_fract_x
 _atom_site_fract_y
 _atom_site_fract_z
 _atom_site_occupancy
  S  S0  1  0.49998242  0.50003339  0.00017723  1
  Zn  Zn1  1  0.00005999  0.00015082  0.50002367  1
  Cd  Cd2  1  0.50001032  0.00020111  0.00005523  1
  Cd  Cd3  1  0.00012514  0.50016925  0.49996078  1
