# generated using pymatgen
data_ZnCd2S
_symmetry_space_group_name_H-M   'P 1'
_cell_length_a   3.91810566
_cell_length_b   5.63863465
_cell_length_c   3.91800991
_cell_angle_alpha   89.99987553
_cell_angle_beta   89.99960046
_cell_angle_gamma   89.99990847
_symmetry_Int_Tables_number   1
_chemical_formula_structural   ZnCd2S
_chemical_formula_sum   'Zn1 Cd2 S1'
_cell_volume   86.55967748
_cell_formula_units_Z   1
loop_
 _symmetry_equiv_pos_site_id
 _symmetry_equiv_pos_as_xyz
  1  'x, y, z'
loop_
 _atom_site_type_symbol
 _atom_site_label
 _atom_site_symmetry_multiplicity
 _atom_site_fract_x
 _atom_site_fract_y
 _atom_site_fract_z
 _atom_site_occupancy
  S  S0  1  0.50002289  0.50000048  0.00000851  1
  Zn  Zn1  1  0.00016648  0.00000201  0.50000336  1
  Cd  Cd2  1  0.50002448  0.00000133  0.00001816  1
  Cd  Cd3  1  -0.00000175  0.50000232  0.49999832  1
