# generated using pymatgen
data_ZnCd2S
_symmetry_space_group_name_H-M   'P 1'
_cell_length_a   3.91805680
_cell_length_b   5.63864161
_cell_length_c   3.91805405
_cell_angle_alpha   90.00014816
_cell_angle_beta   89.99966700
_cell_angle_gamma   90.00013175
_symmetry_Int_Tables_number   1
_chemical_formula_structural   ZnCd2S
_chemical_formula_sum   'Zn1 Cd2 S1'
_cell_volume   86.55968016
_cell_formula_units_Z   1
loop_
 _symmetry_equiv_pos_site_id
 _symmetry_equiv_pos_as_xyz
  1  'x, y, z'
loop_
 _atom_site_type_symbol
 _atom_site_label
 _atom_site_symmetry_multiplicity
 _atom_site_fract_x
 _atom_site_fract_y
 _atom_site_fract_z
 _atom_site_occupancy
  S  S0  1  0.49993116  0.50023009  0.00003343  1
  Zn  Zn1  1  0.00020663  0.00035567  0.50001458  1
  Cd  Cd2  1  0.50003944  -0.00002066  0.00007593  1
  Cd  Cd3  1  0.00046293  0.50039369  0.49999325  1
