# generated using pymatgen
data_ZnCdS2
_symmetry_space_group_name_H-M   'P 1'
_cell_length_a   5.11447475
_cell_length_b   4.55908956
_cell_length_c   5.10783379
_cell_angle_alpha   89.99992048
_cell_angle_beta   90.00074252
_cell_angle_gamma   90.00007928
_symmetry_Int_Tables_number   1
_chemical_formula_structural   ZnCdS2
_chemical_formula_sum   'Zn1 Cd1 S2'
_cell_volume   119.10114010
_cell_formula_units_Z   1
loop_
 _symmetry_equiv_pos_site_id
 _symmetry_equiv_pos_as_xyz
  1  'x, y, z'
loop_
 _atom_site_type_symbol
 _atom_site_label
 _atom_site_symmetry_multiplicity
 _atom_site_fract_x
 _atom_site_fract_y
 _atom_site_fract_z
 _atom_site_occupancy
  S  S0  1  0.50000427  0.49999255  0.00024809  1
  Zn  Zn1  1  0.00004119  0.00013798  0.50002793  1
  Cd  Cd2  1  0.50001382  -0.00000668  0.00012702  1
  S  S3  1  0.00002990  0.49999127  0.50010019  1
