# generated using pymatgen
data_ZnCd2S
_symmetry_space_group_name_H-M   'P 1'
_cell_length_a   3.94652055
_cell_length_b   5.42795612
_cell_length_c   3.94649911
_cell_angle_alpha   90.00006312
_cell_angle_beta   89.99887129
_cell_angle_gamma   89.99988761
_symmetry_Int_Tables_number   1
_chemical_formula_structural   ZnCd2S
_chemical_formula_sum   'Zn1 Cd2 S1'
_cell_volume   84.54009007
_cell_formula_units_Z   1
loop_
 _symmetry_equiv_pos_site_id
 _symmetry_equiv_pos_as_xyz
  1  'x, y, z'
loop_
 _atom_site_type_symbol
 _atom_site_label
 _atom_site_symmetry_multiplicity
 _atom_site_fract_x
 _atom_site_fract_y
 _atom_site_fract_z
 _atom_site_occupancy
  Cd  Cd0  1  0.49999957  0.50000435  0.00001163  1
  Zn  Zn1  1  0.00007794  0.00000076  0.49999389  1
  S  S2  1  0.49996121  0.00000206  0.00001169  1
  Cd  Cd3  1  -0.00000180  0.50000067  0.50000535  1
