# generated using pymatgen
data_ZnCdS2
_symmetry_space_group_name_H-M   'P 1'
_cell_length_a   5.11187137
_cell_length_b   4.55908809
_cell_length_c   5.11042768
_cell_angle_alpha   89.99977424
_cell_angle_beta   90.00015392
_cell_angle_gamma   89.99977906
_symmetry_Int_Tables_number   1
_chemical_formula_structural   ZnCdS2
_chemical_formula_sum   'Zn1 Cd1 S2'
_cell_volume   119.10092866
_cell_formula_units_Z   1
loop_
 _symmetry_equiv_pos_site_id
 _symmetry_equiv_pos_as_xyz
  1  'x, y, z'
loop_
 _atom_site_type_symbol
 _atom_site_label
 _atom_site_symmetry_multiplicity
 _atom_site_fract_x
 _atom_site_fract_y
 _atom_site_fract_z
 _atom_site_occupancy
  S  S0  1  0.49999909  0.50001438  0.00033744  1
  Zn  Zn1  1  0.00003226  0.00000717  0.49998891  1
  Cd  Cd2  1  0.49999966  0.00001449  0.00027638  1
  S  S3  1  0.00000617  0.50000161  0.50000506  1
