# generated using pymatgen
data_ZnCd2S
_symmetry_space_group_name_H-M   'P 1'
_cell_length_a   3.91801491
_cell_length_b   5.63856361
_cell_length_c   3.91812854
_cell_angle_alpha   90.00000005
_cell_angle_beta   90.00025258
_cell_angle_gamma   90.00002054
_symmetry_Int_Tables_number   1
_chemical_formula_structural   ZnCd2S
_chemical_formula_sum   'Zn1 Cd2 S1'
_cell_volume   86.55920281
_cell_formula_units_Z   1
loop_
 _symmetry_equiv_pos_site_id
 _symmetry_equiv_pos_as_xyz
  1  'x, y, z'
loop_
 _atom_site_type_symbol
 _atom_site_label
 _atom_site_symmetry_multiplicity
 _atom_site_fract_x
 _atom_site_fract_y
 _atom_site_fract_z
 _atom_site_occupancy
  S  S0  1  0.49999250  0.50000132  0.00010191  1
  Zn  Zn1  1  0.00002413  0.00000478  0.50001081  1
  Cd  Cd2  1  0.50000416  0.00000331  0.00001170  1
  Cd  Cd3  1  0.00005183  0.50000539  0.49997692  1
