# generated using pymatgen
data_ZnCdS2
_symmetry_space_group_name_H-M   'P 1'
_cell_length_a   5.11113724
_cell_length_b   4.55908275
_cell_length_c   5.11113964
_cell_angle_alpha   90.00012012
_cell_angle_beta   89.99996278
_cell_angle_gamma   89.99993619
_symmetry_Int_Tables_number   1
_chemical_formula_structural   ZnCdS2
_chemical_formula_sum   'Zn1 Cd1 S2'
_cell_volume   119.10027461
_cell_formula_units_Z   1
loop_
 _symmetry_equiv_pos_site_id
 _symmetry_equiv_pos_as_xyz
  1  'x, y, z'
loop_
 _atom_site_type_symbol
 _atom_site_label
 _atom_site_symmetry_multiplicity
 _atom_site_fract_x
 _atom_site_fract_y
 _atom_site_fract_z
 _atom_site_occupancy
  S  S0  1  0.49999840  0.50000214  -0.00000675  1
  Zn  Zn1  1  0.00007245  0.00001854  0.50000169  1
  Cd  Cd2  1  0.50000257  0.00000223  0.00005250  1
  S  S3  1  0.00001785  0.50000003  0.49999640  1
