# generated using pymatgen
data_ZnCdS2
_symmetry_space_group_name_H-M   'P 1'
_cell_length_a   5.11115585
_cell_length_b   4.55908637
_cell_length_c   5.11115466
_cell_angle_alpha   89.99995686
_cell_angle_beta   90.00019232
_cell_angle_gamma   90.00011697
_symmetry_Int_Tables_number   1
_chemical_formula_structural   ZnCdS2
_chemical_formula_sum   'Zn1 Cd1 S2'
_cell_volume   119.10115318
_cell_formula_units_Z   1
loop_
 _symmetry_equiv_pos_site_id
 _symmetry_equiv_pos_as_xyz
  1  'x, y, z'
loop_
 _atom_site_type_symbol
 _atom_site_label
 _atom_site_symmetry_multiplicity
 _atom_site_fract_x
 _atom_site_fract_y
 _atom_site_fract_z
 _atom_site_occupancy
  S  S0  1  0.49999328  0.50003206  0.00005116  1
  Zn  Zn1  1  0.00016218  0.00004725  0.50000480  1
  Cd  Cd2  1  0.50000774  0.00003230  0.00020598  1
  S  S3  1  0.00003468  0.49999739  0.50000065  1
