# generated using pymatgen
data_ZnCdS2
_symmetry_space_group_name_H-M   'P 1'
_cell_length_a   5.11440952
_cell_length_b   4.55908912
_cell_length_c   5.10797661
_cell_angle_alpha   90.00010179
_cell_angle_beta   90.00442321
_cell_angle_gamma   90.00010915
_symmetry_Int_Tables_number   1
_chemical_formula_structural   ZnCdS2
_chemical_formula_sum   'Zn1 Cd1 S2'
_cell_volume   119.10293948
_cell_formula_units_Z   1
loop_
 _symmetry_equiv_pos_site_id
 _symmetry_equiv_pos_as_xyz
  1  'x, y, z'
loop_
 _atom_site_type_symbol
 _atom_site_label
 _atom_site_symmetry_multiplicity
 _atom_site_fract_x
 _atom_site_fract_y
 _atom_site_fract_z
 _atom_site_occupancy
  S  S0  1  0.49993224  0.50000765  0.00054897  1
  Zn  Zn1  1  0.00066287  0.00016230  0.50005726  1
  Cd  Cd2  1  0.50006790  0.00000845  0.00044435  1
  S  S3  1  0.00048665  0.50000001  0.50020503  1
