# generated using pymatgen
data_ZnCd2S
_symmetry_space_group_name_H-M   'P 1'
_cell_length_a   3.91809394
_cell_length_b   5.63860289
_cell_length_c   3.91803555
_cell_angle_alpha   90.00010251
_cell_angle_beta   89.99952600
_cell_angle_gamma   90.00002443
_symmetry_Int_Tables_number   1
_chemical_formula_structural   ZnCd2S
_chemical_formula_sum   'Zn1 Cd2 S1'
_cell_volume   86.55949741
_cell_formula_units_Z   1
loop_
 _symmetry_equiv_pos_site_id
 _symmetry_equiv_pos_as_xyz
  1  'x, y, z'
loop_
 _atom_site_type_symbol
 _atom_site_label
 _atom_site_symmetry_multiplicity
 _atom_site_fract_x
 _atom_site_fract_y
 _atom_site_fract_z
 _atom_site_occupancy
  S  S0  1  0.49999999  0.49999898  0.00000047  1
  Zn  Zn1  1  0.00000036  -0.00000016  0.50000164  1
  Cd  Cd2  1  0.49999992  0.00000132  0.00001199  1
  Cd  Cd3  1  0.00000065  0.50000000  0.50000021  1
