# generated using pymatgen
data_ZnCdSeS
_symmetry_space_group_name_H-M   'P 1'
_cell_length_a   4.66521042
_cell_length_b   4.91916616
_cell_length_c   4.66527588
_cell_angle_alpha   89.99998128
_cell_angle_beta   90.00004670
_cell_angle_gamma   89.99986965
_symmetry_Int_Tables_number   1
_chemical_formula_structural   ZnCdSeS
_chemical_formula_sum   'Zn1 Cd1 Se1 S1'
_cell_volume   107.06316057
_cell_formula_units_Z   1
loop_
 _symmetry_equiv_pos_site_id
 _symmetry_equiv_pos_as_xyz
  1  'x, y, z'
loop_
 _atom_site_type_symbol
 _atom_site_label
 _atom_site_symmetry_multiplicity
 _atom_site_fract_x
 _atom_site_fract_y
 _atom_site_fract_z
 _atom_site_occupancy
  S  S0  1  0.50001350  0.50053356  0.00005256  1
  Zn  Zn1  1  0.00004927  0.00016947  0.49999763  1
  Cd  Cd2  1  0.49999396  0.00057373  0.00009926  1
  Se  Se3  1  0.00007367  0.50003422  0.50000514  1
