# generated using pymatgen
data_ZnCdS2
_symmetry_space_group_name_H-M   'P 1'
_cell_length_a   5.11114822
_cell_length_b   4.55908196
_cell_length_c   5.11113517
_cell_angle_alpha   89.99992226
_cell_angle_beta   90.00024963
_cell_angle_gamma   89.99994729
_symmetry_Int_Tables_number   1
_chemical_formula_structural   ZnCdS2
_chemical_formula_sum   'Zn1 Cd1 S2'
_cell_volume   119.10040577
_cell_formula_units_Z   1
loop_
 _symmetry_equiv_pos_site_id
 _symmetry_equiv_pos_as_xyz
  1  'x, y, z'
loop_
 _atom_site_type_symbol
 _atom_site_label
 _atom_site_symmetry_multiplicity
 _atom_site_fract_x
 _atom_site_fract_y
 _atom_site_fract_z
 _atom_site_occupancy
  S  S0  1  0.49999790  0.50006806  0.00005722  1
  Zn  Zn1  1  0.00010144  0.00001256  0.50000374  1
  Cd  Cd2  1  0.50000353  0.00006816  0.00018695  1
  S  S3  1  0.00002553  0.49999462  0.50000269  1
