# generated using pymatgen
data_ZnCdS2
_symmetry_space_group_name_H-M   'P 1'
_cell_length_a   5.11112982
_cell_length_b   4.55908452
_cell_length_c   5.11115112
_cell_angle_alpha   89.99999916
_cell_angle_beta   90.00019973
_cell_angle_gamma   90.00010204
_symmetry_Int_Tables_number   1
_chemical_formula_structural   ZnCdS2
_chemical_formula_sum   'Zn1 Cd1 S2'
_cell_volume   119.10041569
_cell_formula_units_Z   1
loop_
 _symmetry_equiv_pos_site_id
 _symmetry_equiv_pos_as_xyz
  1  'x, y, z'
loop_
 _atom_site_type_symbol
 _atom_site_label
 _atom_site_symmetry_multiplicity
 _atom_site_fract_x
 _atom_site_fract_y
 _atom_site_fract_z
 _atom_site_occupancy
  S  S0  1  0.50000014  0.50002026  0.00002465  1
  Zn  Zn1  1  0.00000435  0.00000587  0.50000011  1
  Cd  Cd2  1  0.50000018  0.00002032  0.00002492  1
  S  S3  1  0.00000161  0.49999712  0.50000428  1
