# generated using pymatgen
data_ZnCdSeS
_symmetry_space_group_name_H-M   'P 1'
_cell_length_a   4.66521243
_cell_length_b   4.91917049
_cell_length_c   4.66527302
_cell_angle_alpha   90.00002762
_cell_angle_beta   89.99985103
_cell_angle_gamma   90.00001108
_symmetry_Int_Tables_number   1
_chemical_formula_structural   ZnCdSeS
_chemical_formula_sum   'Zn1 Cd1 Se1 S1'
_cell_volume   107.06323533
_cell_formula_units_Z   1
loop_
 _symmetry_equiv_pos_site_id
 _symmetry_equiv_pos_as_xyz
  1  'x, y, z'
loop_
 _atom_site_type_symbol
 _atom_site_label
 _atom_site_symmetry_multiplicity
 _atom_site_fract_x
 _atom_site_fract_y
 _atom_site_fract_z
 _atom_site_occupancy
  S  S0  1  0.49995326  0.50008433  0.00122232  1
  Zn  Zn1  1  0.00083982  0.00009226  0.50049148  1
  Cd  Cd2  1  0.50016412  0.00008561  0.00099689  1
  Se  Se3  1  0.00013089  0.50004385  0.50103058  1
