# generated using pymatgen
data_ZnCdS2
_symmetry_space_group_name_H-M   'P 1'
_cell_length_a   5.11098409
_cell_length_b   4.55911059
_cell_length_c   5.11170553
_cell_angle_alpha   89.99968067
_cell_angle_beta   90.00216742
_cell_angle_gamma   89.99954362
_symmetry_Int_Tables_number   1
_chemical_formula_structural   ZnCdS2
_chemical_formula_sum   'Zn1 Cd1 S2'
_cell_volume   119.11061938
_cell_formula_units_Z   1
loop_
 _symmetry_equiv_pos_site_id
 _symmetry_equiv_pos_as_xyz
  1  'x, y, z'
loop_
 _atom_site_type_symbol
 _atom_site_label
 _atom_site_symmetry_multiplicity
 _atom_site_fract_x
 _atom_site_fract_y
 _atom_site_fract_z
 _atom_site_occupancy
  S  S0  1  0.50018331  0.50008974  0.00015229  1
  Zn  Zn1  1  0.00221080  0.00049843  0.49999574  1
  Cd  Cd2  1  0.49996949  0.00009229  0.00001599  1
  S  S3  1  0.00125121  0.49998227  0.50003268  1
