# generated using pymatgen
data_ZnCdGaS
_symmetry_space_group_name_H-M   'P 1'
_cell_length_a   4.22737236
_cell_length_b   5.07651461
_cell_length_c   4.22737889
_cell_angle_alpha   89.99990641
_cell_angle_beta   90.00060734
_cell_angle_gamma   90.00006376
_symmetry_Int_Tables_number   1
_chemical_formula_structural   ZnCdGaS
_chemical_formula_sum   'Zn1 Cd1 Ga1 S1'
_cell_volume   90.72089314
_cell_formula_units_Z   1
loop_
 _symmetry_equiv_pos_site_id
 _symmetry_equiv_pos_as_xyz
  1  'x, y, z'
loop_
 _atom_site_type_symbol
 _atom_site_label
 _atom_site_symmetry_multiplicity
 _atom_site_fract_x
 _atom_site_fract_y
 _atom_site_fract_z
 _atom_site_occupancy
  S  S0  1  0.50000048  0.50000291  0.00001038  1
  Zn  Zn1  1  0.00001833  0.00000247  0.50000061  1
  Cd  Cd2  1  0.50000001  0.00000500  0.00002035  1
  Ga  Ga3  1  0.00000889  0.50000038  0.49999923  1
