# generated using pymatgen
data_ZnCd2S
_symmetry_space_group_name_H-M   'P 1'
_cell_length_a   3.94657034
_cell_length_b   5.42795281
_cell_length_c   3.94645293
_cell_angle_alpha   89.99998872
_cell_angle_beta   90.00168414
_cell_angle_gamma   90.00048149
_symmetry_Int_Tables_number   1
_chemical_formula_structural   ZnCd2S
_chemical_formula_sum   'Zn1 Cd2 S1'
_cell_volume   84.54011572
_cell_formula_units_Z   1
loop_
 _symmetry_equiv_pos_site_id
 _symmetry_equiv_pos_as_xyz
  1  'x, y, z'
loop_
 _atom_site_type_symbol
 _atom_site_label
 _atom_site_symmetry_multiplicity
 _atom_site_fract_x
 _atom_site_fract_y
 _atom_site_fract_z
 _atom_site_occupancy
  Cd  Cd0  1  0.50000579  0.50013264  0.00000441  1
  Zn  Zn1  1  0.00036350  0.00001364  0.49998289  1
  S  S2  1  0.49981896  0.00009831  0.00003245  1
  Cd  Cd3  1  0.00000957  0.50001851  0.50000288  1
