# generated using pymatgen
data_ZnCd2S
_symmetry_space_group_name_H-M   'P 1'
_cell_length_a   3.91810577
_cell_length_b   5.63841422
_cell_length_c   3.91812735
_cell_angle_alpha   89.99974322
_cell_angle_beta   90.00164624
_cell_angle_gamma   89.99986586
_symmetry_Int_Tables_number   1
_chemical_formula_structural   ZnCd2S
_chemical_formula_sum   'Zn1 Cd2 S1'
_cell_volume   86.55889039
_cell_formula_units_Z   1
loop_
 _symmetry_equiv_pos_site_id
 _symmetry_equiv_pos_as_xyz
  1  'x, y, z'
loop_
 _atom_site_type_symbol
 _atom_site_label
 _atom_site_symmetry_multiplicity
 _atom_site_fract_x
 _atom_site_fract_y
 _atom_site_fract_z
 _atom_site_occupancy
  S  S0  1  0.50010634  0.49992324  0.00010356  1
  Zn  Zn1  1  0.00102490  0.00002057  0.50015966  1
  Cd  Cd2  1  0.50013336  0.00035991  0.00120207  1
  Cd  Cd3  1  0.00011827  0.50002601  0.49999423  1
