# generated using pymatgen
data_ZnCdSeS
_symmetry_space_group_name_H-M   'P 1'
_cell_length_a   4.66524116
_cell_length_b   4.91916369
_cell_length_c   4.66524538
_cell_angle_alpha   90.00014380
_cell_angle_beta   90.00018549
_cell_angle_gamma   90.00001560
_symmetry_Int_Tables_number   1
_chemical_formula_structural   ZnCdSeS
_chemical_formula_sum   'Zn1 Cd1 Se1 S1'
_cell_volume   107.06311245
_cell_formula_units_Z   1
loop_
 _symmetry_equiv_pos_site_id
 _symmetry_equiv_pos_as_xyz
  1  'x, y, z'
loop_
 _atom_site_type_symbol
 _atom_site_label
 _atom_site_symmetry_multiplicity
 _atom_site_fract_x
 _atom_site_fract_y
 _atom_site_fract_z
 _atom_site_occupancy
  S  S0  1  0.50002395  0.50010519  0.00001686  1
  Zn  Zn1  1  0.00009092  0.00023219  0.49999623  1
  Cd  Cd2  1  0.49998795  0.00010725  0.00013263  1
  Se  Se3  1  0.00007753  0.50016164  0.49999687  1
