# generated using pymatgen
data_ZnCdS2
_symmetry_space_group_name_H-M   'P 1'
_cell_length_a   5.11109312
_cell_length_b   4.55910339
_cell_length_c   5.11114272
_cell_angle_alpha   90.00087929
_cell_angle_beta   90.00047168
_cell_angle_gamma   89.99893693
_symmetry_Int_Tables_number   1
_chemical_formula_structural   ZnCdS2
_chemical_formula_sum   'Zn1 Cd1 S2'
_cell_volume   119.09985778
_cell_formula_units_Z   1
loop_
 _symmetry_equiv_pos_site_id
 _symmetry_equiv_pos_as_xyz
  1  'x, y, z'
loop_
 _atom_site_type_symbol
 _atom_site_label
 _atom_site_symmetry_multiplicity
 _atom_site_fract_x
 _atom_site_fract_y
 _atom_site_fract_z
 _atom_site_occupancy
  S  S0  1  0.50001474  0.49999408  -0.00000499  1
  Zn  Zn1  1  0.00006845  0.00036263  0.50000238  1
  Cd  Cd2  1  0.49999364  -0.00000421  0.00005746  1
  S  S3  1  0.00005594  0.49998817  0.49999541  1
