# generated using pymatgen
data_ZnCdSe2
_symmetry_space_group_name_H-M   'P 1'
_cell_length_a   4.90966863
_cell_length_b   5.11335425
_cell_length_c   5.75892188
_cell_angle_alpha   87.60043315
_cell_angle_beta   84.78210171
_cell_angle_gamma   71.60427501
_symmetry_Int_Tables_number   1
_chemical_formula_structural   ZnCdSe2
_chemical_formula_sum   'Zn1 Cd1 Se2'
_cell_volume   136.60729288
_cell_formula_units_Z   1
loop_
 _symmetry_equiv_pos_site_id
 _symmetry_equiv_pos_as_xyz
  1  'x, y, z'
loop_
 _atom_site_type_symbol
 _atom_site_label
 _atom_site_symmetry_multiplicity
 _atom_site_fract_x
 _atom_site_fract_y
 _atom_site_fract_z
 _atom_site_occupancy
  Se  Se0  1  0.50002788  0.50004220  -0.00010314  1
  Zn  Zn1  1  0.00003636  0.00002300  0.50000888  1
  Cd  Cd2  1  0.49993528  0.00005203  0.00004138  1
  Se  Se3  1  0.00010698  0.49992585  0.50009679  1
