# generated using pymatgen
data_ZnCdS2
_symmetry_space_group_name_H-M   'P 1'
_cell_length_a   5.11157386
_cell_length_b   4.55909132
_cell_length_c   5.11084171
_cell_angle_alpha   89.99925364
_cell_angle_beta   90.00154320
_cell_angle_gamma   89.99949381
_symmetry_Int_Tables_number   1
_chemical_formula_structural   ZnCdS2
_chemical_formula_sum   'Zn1 Cd1 S2'
_cell_volume   119.10372970
_cell_formula_units_Z   1
loop_
 _symmetry_equiv_pos_site_id
 _symmetry_equiv_pos_as_xyz
  1  'x, y, z'
loop_
 _atom_site_type_symbol
 _atom_site_label
 _atom_site_symmetry_multiplicity
 _atom_site_fract_x
 _atom_site_fract_y
 _atom_site_fract_z
 _atom_site_occupancy
  S  S0  1  0.50004474  0.50102397  0.00072329  1
  Zn  Zn1  1  0.00008666  0.00012543  0.49997791  1
  Cd  Cd2  1  0.49998184  0.00102475  -0.00003531  1
  S  S3  1  0.00017838  0.49992197  0.50013750  1
