# generated using pymatgen
data_ZnCdS2
_symmetry_space_group_name_H-M   'P 1'
_cell_length_a   5.11115440
_cell_length_b   4.55908678
_cell_length_c   5.11115339
_cell_angle_alpha   90.00000462
_cell_angle_beta   90.00012954
_cell_angle_gamma   90.00005196
_symmetry_Int_Tables_number   1
_chemical_formula_structural   ZnCdS2
_chemical_formula_sum   'Zn1 Cd1 S2'
_cell_volume   119.10110031
_cell_formula_units_Z   1
loop_
 _symmetry_equiv_pos_site_id
 _symmetry_equiv_pos_as_xyz
  1  'x, y, z'
loop_
 _atom_site_type_symbol
 _atom_site_label
 _atom_site_symmetry_multiplicity
 _atom_site_fract_x
 _atom_site_fract_y
 _atom_site_fract_z
 _atom_site_occupancy
  S  S0  1  0.49999734  0.50000099  -0.00000338  1
  Zn  Zn1  1  0.00008248  0.00000358  0.50000185  1
  Cd  Cd2  1  0.50000363  0.00000098  0.00005695  1
  S  S3  1  0.00001982  0.49999988  0.49999661  1
