# generated using pymatgen
data_ZnCdS2
_symmetry_space_group_name_H-M   'P 1'
_cell_length_a   5.11117614
_cell_length_b   4.55909909
_cell_length_c   5.11117251
_cell_angle_alpha   90.00068595
_cell_angle_beta   90.00030397
_cell_angle_gamma   89.99937418
_symmetry_Int_Tables_number   1
_chemical_formula_structural   ZnCdS2
_chemical_formula_sum   'Zn1 Cd1 S2'
_cell_volume   119.10237433
_cell_formula_units_Z   1
loop_
 _symmetry_equiv_pos_site_id
 _symmetry_equiv_pos_as_xyz
  1  'x, y, z'
loop_
 _atom_site_type_symbol
 _atom_site_label
 _atom_site_symmetry_multiplicity
 _atom_site_fract_x
 _atom_site_fract_y
 _atom_site_fract_z
 _atom_site_occupancy
  S  S0  1  0.50001251  0.49999706  -0.00001337  1
  Zn  Zn1  1  0.00001799  0.00010040  0.50000184  1
  Cd  Cd2  1  0.49999115  -0.00000264  0.00003455  1
  S  S3  1  0.00002265  0.49998866  0.49999388  1
