# generated using pymatgen
data_ZnCdSeS
_symmetry_space_group_name_H-M   'P 1'
_cell_length_a   4.65922374
_cell_length_b   4.91754945
_cell_length_c   4.65921330
_cell_angle_alpha   89.99970334
_cell_angle_beta   93.83653287
_cell_angle_gamma   89.99992220
_symmetry_Int_Tables_number   1
_chemical_formula_structural   ZnCdSeS
_chemical_formula_sum   'Zn1 Cd1 Se1 S1'
_cell_volume   106.51249360
_cell_formula_units_Z   1
loop_
 _symmetry_equiv_pos_site_id
 _symmetry_equiv_pos_as_xyz
  1  'x, y, z'
loop_
 _atom_site_type_symbol
 _atom_site_label
 _atom_site_symmetry_multiplicity
 _atom_site_fract_x
 _atom_site_fract_y
 _atom_site_fract_z
 _atom_site_occupancy
  S  S0  1  0.50032694  0.50011892  0.00004743  1
  Zn  Zn1  1  0.00017283  0.00000863  0.49995140  1
  Cd  Cd2  1  0.50000255  0.00011957  0.00042340  1
  Se  Se3  1  -0.00022636  0.49999895  0.50016285  1
