# generated using pymatgen
data_ZnCd2S
_symmetry_space_group_name_H-M   'P 1'
_cell_length_a   3.91816714
_cell_length_b   5.63846666
_cell_length_c   3.91804433
_cell_angle_alpha   90.00005973
_cell_angle_beta   90.00003586
_cell_angle_gamma   90.00024804
_symmetry_Int_Tables_number   1
_chemical_formula_structural   ZnCd2S
_chemical_formula_sum   'Zn1 Cd2 S1'
_cell_volume   86.55921709
_cell_formula_units_Z   1
loop_
 _symmetry_equiv_pos_site_id
 _symmetry_equiv_pos_as_xyz
  1  'x, y, z'
loop_
 _atom_site_type_symbol
 _atom_site_label
 _atom_site_symmetry_multiplicity
 _atom_site_fract_x
 _atom_site_fract_y
 _atom_site_fract_z
 _atom_site_occupancy
  S  S0  1  0.49984523  0.50000450  0.00001680  1
  Zn  Zn1  1  0.00006299  0.00004908  0.50000604  1
  Cd  Cd2  1  0.50001939  0.00008913  0.00003528  1
  Cd  Cd3  1  0.00082536  0.50005496  0.49999686  1
