# generated using pymatgen
data_ZnCd2S
_symmetry_space_group_name_H-M   'P 1'
_cell_length_a   3.91802659
_cell_length_b   5.63858926
_cell_length_c   3.91810372
_cell_angle_alpha   89.99999869
_cell_angle_beta   90.00010098
_cell_angle_gamma   89.99998088
_symmetry_Int_Tables_number   1
_chemical_formula_structural   ZnCd2S
_chemical_formula_sum   'Zn1 Cd2 S1'
_cell_volume   86.55930649
_cell_formula_units_Z   1
loop_
 _symmetry_equiv_pos_site_id
 _symmetry_equiv_pos_as_xyz
  1  'x, y, z'
loop_
 _atom_site_type_symbol
 _atom_site_label
 _atom_site_symmetry_multiplicity
 _atom_site_fract_x
 _atom_site_fract_y
 _atom_site_fract_z
 _atom_site_occupancy
  S  S0  1  0.49997870  0.50015241  0.00013012  1
  Zn  Zn1  1  0.00008903  0.00025831  0.50002775  1
  Cd  Cd2  1  0.50001520  0.00000589  0.00011387  1
  Cd  Cd3  1  0.00016340  0.50028418  0.49997223  1
