# generated using pymatgen
data_ZnCdS2
_symmetry_space_group_name_H-M   'P 1'
_cell_length_a   5.11112832
_cell_length_b   4.55909445
_cell_length_c   5.11113978
_cell_angle_alpha   90.00060814
_cell_angle_beta   90.00012991
_cell_angle_gamma   89.99927208
_symmetry_Int_Tables_number   1
_chemical_formula_structural   ZnCdS2
_chemical_formula_sum   'Zn1 Cd1 S2'
_cell_volume   119.10037598
_cell_formula_units_Z   1
loop_
 _symmetry_equiv_pos_site_id
 _symmetry_equiv_pos_as_xyz
  1  'x, y, z'
loop_
 _atom_site_type_symbol
 _atom_site_label
 _atom_site_symmetry_multiplicity
 _atom_site_fract_x
 _atom_site_fract_y
 _atom_site_fract_z
 _atom_site_occupancy
  S  S0  1  0.50000722  0.49999592  -0.00000715  1
  Zn  Zn1  1  0.00004195  0.00026444  0.50000152  1
  Cd  Cd2  1  0.49999753  -0.00000278  0.00004156  1
  S  S3  1  0.00003485  0.50000158  0.49999648  1
