# generated using pymatgen
data_ZnCdS2
_symmetry_space_group_name_H-M   'P 1'
_cell_length_a   5.11111463
_cell_length_b   4.55908338
_cell_length_c   5.11112901
_cell_angle_alpha   90.00012317
_cell_angle_beta   89.99999633
_cell_angle_gamma   89.99962409
_symmetry_Int_Tables_number   1
_chemical_formula_structural   ZnCdS2
_chemical_formula_sum   'Zn1 Cd1 S2'
_cell_volume   119.09951668
_cell_formula_units_Z   1
loop_
 _symmetry_equiv_pos_site_id
 _symmetry_equiv_pos_as_xyz
  1  'x, y, z'
loop_
 _atom_site_type_symbol
 _atom_site_label
 _atom_site_symmetry_multiplicity
 _atom_site_fract_x
 _atom_site_fract_y
 _atom_site_fract_z
 _atom_site_occupancy
  S  S0  1  0.50000007  0.50000301  -0.00003188  1
  Zn  Zn1  1  0.00003773  0.00001288  0.50000702  1
  Cd  Cd2  1  0.50000095  0.00000305  0.00021062  1
  S  S3  1  0.00001211  0.49999988  0.49998469  1
