# generated using pymatgen
data_ZnCdSeS
_symmetry_space_group_name_H-M   'P 1'
_cell_length_a   4.66523708
_cell_length_b   4.91915903
_cell_length_c   4.66524961
_cell_angle_alpha   90.00002088
_cell_angle_beta   89.99996690
_cell_angle_gamma   89.99986059
_symmetry_Int_Tables_number   1
_chemical_formula_structural   ZnCdSeS
_chemical_formula_sum   'Zn1 Cd1 Se1 S1'
_cell_volume   107.06301421
_cell_formula_units_Z   1
loop_
 _symmetry_equiv_pos_site_id
 _symmetry_equiv_pos_as_xyz
  1  'x, y, z'
loop_
 _atom_site_type_symbol
 _atom_site_label
 _atom_site_symmetry_multiplicity
 _atom_site_fract_x
 _atom_site_fract_y
 _atom_site_fract_z
 _atom_site_occupancy
  S  S0  1  0.50035827  0.50018121  0.00014650  1
  Zn  Zn1  1  0.00017204  0.00052896  0.49998153  1
  Cd  Cd2  1  0.49984760  0.00016835  0.00017651  1
  Se  Se3  1  0.00053620  0.50066693  0.50008552  1
