# generated using pymatgen
data_ZnCd2S
_symmetry_space_group_name_H-M   'P 1'
_cell_length_a   3.91809112
_cell_length_b   5.63866559
_cell_length_c   3.91800649
_cell_angle_alpha   89.99998964
_cell_angle_beta   90.00133336
_cell_angle_gamma   89.99998231
_symmetry_Int_Tables_number   1
_chemical_formula_structural   ZnCd2S
_chemical_formula_sum   'Zn1 Cd2 S1'
_cell_volume   86.55975554
_cell_formula_units_Z   1
loop_
 _symmetry_equiv_pos_site_id
 _symmetry_equiv_pos_as_xyz
  1  'x, y, z'
loop_
 _atom_site_type_symbol
 _atom_site_label
 _atom_site_symmetry_multiplicity
 _atom_site_fract_x
 _atom_site_fract_y
 _atom_site_fract_z
 _atom_site_occupancy
  S  S0  1  0.50000427  0.50001803  0.00000962  1
  Zn  Zn1  1  0.00003776  0.00003238  0.50000326  1
  Cd  Cd2  1  0.50000565  0.00000405  0.00001667  1
  Cd  Cd3  1  0.00000404  0.50003604  0.49999806  1
