# generated using pymatgen
data_ZnCdGaS
_symmetry_space_group_name_H-M   'P 1'
_cell_length_a   4.29640306
_cell_length_b   5.15309242
_cell_length_c   4.29639941
_cell_angle_alpha   89.99908022
_cell_angle_beta   89.99962841
_cell_angle_gamma   89.99950443
_symmetry_Int_Tables_number   1
_chemical_formula_structural   ZnCdGaS
_chemical_formula_sum   'Zn1 Cd1 Ga1 S1'
_cell_volume   95.12126039
_cell_formula_units_Z   1
loop_
 _symmetry_equiv_pos_site_id
 _symmetry_equiv_pos_as_xyz
  1  'x, y, z'
loop_
 _atom_site_type_symbol
 _atom_site_label
 _atom_site_symmetry_multiplicity
 _atom_site_fract_x
 _atom_site_fract_y
 _atom_site_fract_z
 _atom_site_occupancy
  Cd  Cd0  1  0.50000138  0.50004660  0.00000460  1
  Zn  Zn1  1  0.00001921  0.00001626  0.49998106  1
  S  S2  1  0.49999458  0.00005434  0.00004563  1
  Ga  Ga3  1  0.00000408  0.50002902  0.50000758  1
