# generated using pymatgen
data_ZnCdS2
_symmetry_space_group_name_H-M   'P 1'
_cell_length_a   5.11155253
_cell_length_b   4.55908792
_cell_length_c   5.11080056
_cell_angle_alpha   89.99983487
_cell_angle_beta   90.00175192
_cell_angle_gamma   89.99960889
_symmetry_Int_Tables_number   1
_chemical_formula_structural   ZnCdS2
_chemical_formula_sum   'Zn1 Cd1 S2'
_cell_volume   119.10218515
_cell_formula_units_Z   1
loop_
 _symmetry_equiv_pos_site_id
 _symmetry_equiv_pos_as_xyz
  1  'x, y, z'
loop_
 _atom_site_type_symbol
 _atom_site_label
 _atom_site_symmetry_multiplicity
 _atom_site_fract_x
 _atom_site_fract_y
 _atom_site_fract_z
 _atom_site_occupancy
  S  S0  1  0.50014369  0.50075811  0.00033419  1
  Zn  Zn1  1  0.00049440  0.00087767  0.49997477  1
  Cd  Cd2  1  0.50008117  0.00075833  0.00013161  1
  S  S3  1  0.00041672  0.50085046  0.50009235  1
