# generated using pymatgen
data_ZnCdSeS
_symmetry_space_group_name_H-M   'P 1'
_cell_length_a   4.66522717
_cell_length_b   4.91916288
_cell_length_c   4.66526124
_cell_angle_alpha   90.00149566
_cell_angle_beta   90.00034015
_cell_angle_gamma   90.00118591
_symmetry_Int_Tables_number   1
_chemical_formula_structural   ZnCdSeS
_chemical_formula_sum   'Zn1 Cd1 Se1 S1'
_cell_volume   107.06313766
_cell_formula_units_Z   1
loop_
 _symmetry_equiv_pos_site_id
 _symmetry_equiv_pos_as_xyz
  1  'x, y, z'
loop_
 _atom_site_type_symbol
 _atom_site_label
 _atom_site_symmetry_multiplicity
 _atom_site_fract_x
 _atom_site_fract_y
 _atom_site_fract_z
 _atom_site_occupancy
  S  S0  1  0.50004674  0.50005876  0.00005767  1
  Zn  Zn1  1  0.00105654  0.00005642  0.49998459  1
  Cd  Cd2  1  0.49995632  0.00006075  0.00081290  1
  Se  Se3  1  0.00027324  0.50003042  0.49996581  1
