# generated using pymatgen
data_ZnCd2S
_symmetry_space_group_name_H-M   'P 1'
_cell_length_a   3.91807253
_cell_length_b   5.63857861
_cell_length_c   3.91806725
_cell_angle_alpha   89.99986269
_cell_angle_beta   90.00033215
_cell_angle_gamma   90.00016407
_symmetry_Int_Tables_number   1
_chemical_formula_structural   ZnCd2S
_chemical_formula_sum   'Zn1 Cd2 S1'
_cell_volume   86.55935195
_cell_formula_units_Z   1
loop_
 _symmetry_equiv_pos_site_id
 _symmetry_equiv_pos_as_xyz
  1  'x, y, z'
loop_
 _atom_site_type_symbol
 _atom_site_label
 _atom_site_symmetry_multiplicity
 _atom_site_fract_x
 _atom_site_fract_y
 _atom_site_fract_z
 _atom_site_occupancy
  S  S0  1  0.49997783  0.50002263  -0.00000225  1
  Zn  Zn1  1  0.00018573  0.00004355  0.50005216  1
  Cd  Cd2  1  0.50002979  0.00000856  0.00037726  1
  Cd  Cd3  1  0.00023275  0.50004824  0.50000587  1
