# generated using pymatgen
data_ZnCd2S
_symmetry_space_group_name_H-M   'P 1'
_cell_length_a   3.94653700
_cell_length_b   5.42796048
_cell_length_c   3.94647996
_cell_angle_alpha   90.00022188
_cell_angle_beta   90.00179538
_cell_angle_gamma   89.99987278
_symmetry_Int_Tables_number   1
_chemical_formula_structural   ZnCd2S
_chemical_formula_sum   'Zn1 Cd2 S1'
_cell_volume   84.54009989
_cell_formula_units_Z   1
loop_
 _symmetry_equiv_pos_site_id
 _symmetry_equiv_pos_as_xyz
  1  'x, y, z'
loop_
 _atom_site_type_symbol
 _atom_site_label
 _atom_site_symmetry_multiplicity
 _atom_site_fract_x
 _atom_site_fract_y
 _atom_site_fract_z
 _atom_site_occupancy
  Cd  Cd0  1  0.50000021  0.50000287  0.00000177  1
  Zn  Zn1  1  0.00000832  0.00000223  0.49999843  1
  S  S2  1  0.49999600  0.00000120  0.00000372  1
  Cd  Cd3  1  0.00000041  0.50000198  0.50000085  1
