# generated using pymatgen
data_ZnCd2S
_symmetry_space_group_name_H-M   'P 1'
_cell_length_a   3.91799477
_cell_length_b   5.63869461
_cell_length_c   3.91808606
_cell_angle_alpha   90.00001635
_cell_angle_beta   90.00094503
_cell_angle_gamma   90.00001341
_symmetry_Int_Tables_number   1
_chemical_formula_structural   ZnCd2S
_chemical_formula_sum   'Zn1 Cd2 S1'
_cell_volume   86.55983026
_cell_formula_units_Z   1
loop_
 _symmetry_equiv_pos_site_id
 _symmetry_equiv_pos_as_xyz
  1  'x, y, z'
loop_
 _atom_site_type_symbol
 _atom_site_label
 _atom_site_symmetry_multiplicity
 _atom_site_fract_x
 _atom_site_fract_y
 _atom_site_fract_z
 _atom_site_occupancy
  S  S0  1  0.50000840  0.49999755  0.00001234  1
  Zn  Zn1  1  0.00007195  0.00000009  0.50000312  1
  Cd  Cd2  1  0.50001080  0.00000718  0.00001413  1
  Cd  Cd3  1  0.00000688  0.50000037  0.49999746  1
