# generated using pymatgen
data_ZnCdS2
_symmetry_space_group_name_H-M   'P 1'
_cell_length_a   5.11115122
_cell_length_b   4.55908825
_cell_length_c   5.11115419
_cell_angle_alpha   89.99963757
_cell_angle_beta   90.00024974
_cell_angle_gamma   89.99962474
_symmetry_Int_Tables_number   1
_chemical_formula_structural   ZnCdS2
_chemical_formula_sum   'Zn1 Cd1 S2'
_cell_volume   119.10108335
_cell_formula_units_Z   1
loop_
 _symmetry_equiv_pos_site_id
 _symmetry_equiv_pos_as_xyz
  1  'x, y, z'
loop_
 _atom_site_type_symbol
 _atom_site_label
 _atom_site_symmetry_multiplicity
 _atom_site_fract_x
 _atom_site_fract_y
 _atom_site_fract_z
 _atom_site_occupancy
  S  S0  1  0.50000098  0.50000019  -0.00000448  1
  Zn  Zn1  1  0.00003344  0.00003208  0.50000223  1
  Cd  Cd2  1  0.50000048  0.00000039  0.00006705  1
  S  S3  1  0.00001389  0.50000001  0.49999586  1
