# generated using pymatgen
data_ZnCdS2
_symmetry_space_group_name_H-M   'P 1'
_cell_length_a   4.17728599
_cell_length_b   5.06069652
_cell_length_c   4.17728638
_cell_angle_alpha   90.00033367
_cell_angle_beta   74.92247366
_cell_angle_gamma   90.00000556
_symmetry_Int_Tables_number   1
_chemical_formula_structural   ZnCdS2
_chemical_formula_sum   'Zn1 Cd1 S2'
_cell_volume   85.26771964
_cell_formula_units_Z   1
loop_
 _symmetry_equiv_pos_site_id
 _symmetry_equiv_pos_as_xyz
  1  'x, y, z'
loop_
 _atom_site_type_symbol
 _atom_site_label
 _atom_site_symmetry_multiplicity
 _atom_site_fract_x
 _atom_site_fract_y
 _atom_site_fract_z
 _atom_site_occupancy
  Cd  Cd0  1  0.50049546  0.50110900  0.00188546  1
  Zn  Zn1  1  -0.00017436  0.00111763  0.50135507  1
  S  S2  1  0.50068924  0.00101022  0.00194749  1
  S  S3  1  -0.00059448  0.50110219  0.50067987  1
