# generated using pymatgen
data_ZnCdSe2
_symmetry_space_group_name_H-M   'P 1'
_cell_length_a   4.49619809
_cell_length_b   5.28926293
_cell_length_c   4.49619203
_cell_angle_alpha   89.99787362
_cell_angle_beta   72.22278921
_cell_angle_gamma   89.99815615
_symmetry_Int_Tables_number   1
_chemical_formula_structural   ZnCdSe2
_chemical_formula_sum   'Zn1 Cd1 Se2'
_cell_volume   101.82087858
_cell_formula_units_Z   1
loop_
 _symmetry_equiv_pos_site_id
 _symmetry_equiv_pos_as_xyz
  1  'x, y, z'
loop_
 _atom_site_type_symbol
 _atom_site_label
 _atom_site_symmetry_multiplicity
 _atom_site_fract_x
 _atom_site_fract_y
 _atom_site_fract_z
 _atom_site_occupancy
  Cd  Cd0  1  0.50009430  0.50063040  0.00025331  1
  Zn  Zn1  1  0.00031671  0.00028733  0.49983114  1
  Se  Se2  1  0.49979601  0.00051691  0.00031571  1
  Se  Se3  1  -0.00001044  0.50027391  0.50005795  1
