# generated using pymatgen
data_ZnCd2S
_symmetry_space_group_name_H-M   'P 1'
_cell_length_a   3.75735339
_cell_length_b   7.14798198
_cell_length_c   3.75735662
_cell_angle_alpha   90.01139332
_cell_angle_beta   90.00011168
_cell_angle_gamma   89.99386568
_symmetry_Int_Tables_number   1
_chemical_formula_structural   ZnCd2S
_chemical_formula_sum   'Zn1 Cd2 S1'
_cell_volume   100.91318143
_cell_formula_units_Z   1
loop_
 _symmetry_equiv_pos_site_id
 _symmetry_equiv_pos_as_xyz
  1  'x, y, z'
loop_
 _atom_site_type_symbol
 _atom_site_label
 _atom_site_symmetry_multiplicity
 _atom_site_fract_x
 _atom_site_fract_y
 _atom_site_fract_z
 _atom_site_occupancy
  Cd  Cd0  1  0.50003544  0.49958352  0.00032737  1
  Zn  Zn1  1  0.00009255  0.00050373  0.50024970  1
  Cd  Cd2  1  0.50015266  0.00040181  0.00007672  1
  S  S3  1  0.00003280  0.49985653  0.50029156  1
