# generated using pymatgen
data_ZnCdS2
_symmetry_space_group_name_H-M   'P 1'
_cell_length_a   4.17725471
_cell_length_b   5.06070547
_cell_length_c   4.17727448
_cell_angle_alpha   90.00001421
_cell_angle_beta   105.07694289
_cell_angle_gamma   90.00004802
_symmetry_Int_Tables_number   1
_chemical_formula_structural   ZnCdS2
_chemical_formula_sum   'Zn1 Cd1 S2'
_cell_volume   85.26722281
_cell_formula_units_Z   1
loop_
 _symmetry_equiv_pos_site_id
 _symmetry_equiv_pos_as_xyz
  1  'x, y, z'
loop_
 _atom_site_type_symbol
 _atom_site_label
 _atom_site_symmetry_multiplicity
 _atom_site_fract_x
 _atom_site_fract_y
 _atom_site_fract_z
 _atom_site_occupancy
  Cd  Cd0  1  0.50000406  0.50000229  0.00001915  1
  Zn  Zn1  1  0.00004571  0.00000350  0.49999350  1
  S  S2  1  0.50000408  0.00000169  0.00001202  1
  S  S3  1  0.00004390  0.49999955  0.49998391  1
