# generated using pymatgen
data_ZnCdSeS
_symmetry_space_group_name_H-M   'P 1'
_cell_length_a   4.66524109
_cell_length_b   4.91916748
_cell_length_c   4.66523895
_cell_angle_alpha   90.00003861
_cell_angle_beta   90.00001696
_cell_angle_gamma   89.99994983
_symmetry_Int_Tables_number   1
_chemical_formula_structural   ZnCdSeS
_chemical_formula_sum   'Zn1 Cd1 Se1 S1'
_cell_volume   107.06304588
_cell_formula_units_Z   1
loop_
 _symmetry_equiv_pos_site_id
 _symmetry_equiv_pos_as_xyz
  1  'x, y, z'
loop_
 _atom_site_type_symbol
 _atom_site_label
 _atom_site_symmetry_multiplicity
 _atom_site_fract_x
 _atom_site_fract_y
 _atom_site_fract_z
 _atom_site_occupancy
  S  S0  1  0.50005185  0.50000251  0.00000807  1
  Zn  Zn1  1  0.00000319  0.00012408  0.49999950  1
  Cd  Cd2  1  0.49998040  0.00000304  0.00001126  1
  Se  Se3  1  0.00017537  0.50008373  0.50000176  1
