# generated using pymatgen
data_ZnCd2S
_symmetry_space_group_name_H-M   'P 1'
_cell_length_a   3.91809585
_cell_length_b   5.63846083
_cell_length_c   3.91810006
_cell_angle_alpha   90.00011715
_cell_angle_beta   90.00009815
_cell_angle_gamma   90.00017426
_symmetry_Int_Tables_number   1
_chemical_formula_structural   ZnCd2S
_chemical_formula_sum   'Zn1 Cd2 S1'
_cell_volume   86.55878400
_cell_formula_units_Z   1
loop_
 _symmetry_equiv_pos_site_id
 _symmetry_equiv_pos_as_xyz
  1  'x, y, z'
loop_
 _atom_site_type_symbol
 _atom_site_label
 _atom_site_symmetry_multiplicity
 _atom_site_fract_x
 _atom_site_fract_y
 _atom_site_fract_z
 _atom_site_occupancy
  S  S0  1  0.49998624  0.50000118  0.00000046  1
  Zn  Zn1  1  0.00003097  0.00000412  0.50000039  1
  Cd  Cd2  1  0.50000527  0.00000219  0.00000251  1
  Cd  Cd3  1  0.00008975  0.50000457  0.49999989  1
