# generated using pymatgen
data_ZnCd2S
_symmetry_space_group_name_H-M   'P 1'
_cell_length_a   3.91810413
_cell_length_b   5.63860594
_cell_length_c   3.91803077
_cell_angle_alpha   90.00005654
_cell_angle_beta   90.00137202
_cell_angle_gamma   90.00008873
_symmetry_Int_Tables_number   1
_chemical_formula_structural   ZnCd2S
_chemical_formula_sum   'Zn1 Cd2 S1'
_cell_volume   86.55966356
_cell_formula_units_Z   1
loop_
 _symmetry_equiv_pos_site_id
 _symmetry_equiv_pos_as_xyz
  1  'x, y, z'
loop_
 _atom_site_type_symbol
 _atom_site_label
 _atom_site_symmetry_multiplicity
 _atom_site_fract_x
 _atom_site_fract_y
 _atom_site_fract_z
 _atom_site_occupancy
  S  S0  1  0.49990654  0.49999273  0.00021337  1
  Zn  Zn1  1  0.00003128  0.00004906  0.50003361  1
  Cd  Cd2  1  0.50001052  0.00013738  0.00011619  1
  Cd  Cd3  1  0.00049828  0.50005515  0.49995565  1
