# generated using pymatgen
data_ZnCd2S
_symmetry_space_group_name_H-M   'P 1'
_cell_length_a   3.94648446
_cell_length_b   5.42794089
_cell_length_c   3.94654429
_cell_angle_alpha   90.00006479
_cell_angle_beta   90.00028397
_cell_angle_gamma   89.99995864
_symmetry_Int_Tables_number   1
_chemical_formula_structural   ZnCd2S
_chemical_formula_sum   'Zn1 Cd2 S1'
_cell_volume   84.54004741
_cell_formula_units_Z   1
loop_
 _symmetry_equiv_pos_site_id
 _symmetry_equiv_pos_as_xyz
  1  'x, y, z'
loop_
 _atom_site_type_symbol
 _atom_site_label
 _atom_site_symmetry_multiplicity
 _atom_site_fract_x
 _atom_site_fract_y
 _atom_site_fract_z
 _atom_site_occupancy
  Cd  Cd0  1  0.50002120  0.50004007  0.00015784  1
  Zn  Zn1  1  0.00001834  0.00006494  0.49989371  1
  S  S2  1  0.49999221  0.00004752  0.00018748  1
  Cd  Cd3  1  0.00004477  0.50006259  0.50007748  1
