# generated using pymatgen
data_ZnCd2S
_symmetry_space_group_name_H-M   'P 1'
_cell_length_a   3.94651027
_cell_length_b   5.42796358
_cell_length_c   3.94650091
_cell_angle_alpha   89.99975660
_cell_angle_beta   89.99871971
_cell_angle_gamma   90.00011523
_symmetry_Int_Tables_number   1
_chemical_formula_structural   ZnCd2S
_chemical_formula_sum   'Zn1 Cd2 S1'
_cell_volume   84.54002469
_cell_formula_units_Z   1
loop_
 _symmetry_equiv_pos_site_id
 _symmetry_equiv_pos_as_xyz
  1  'x, y, z'
loop_
 _atom_site_type_symbol
 _atom_site_label
 _atom_site_symmetry_multiplicity
 _atom_site_fract_x
 _atom_site_fract_y
 _atom_site_fract_z
 _atom_site_occupancy
  Cd  Cd0  1  0.50001161  0.50000430  0.00000257  1
  Zn  Zn1  1  0.00000583  0.00000596  0.49995977  1
  S  S2  1  0.49999808  0.00000340  0.00007527  1
  Cd  Cd3  1  0.00002671  0.50000560  0.50000325  1
