# generated using pymatgen
data_ZnCd2S
_symmetry_space_group_name_H-M   'P 1'
_cell_length_a   3.91810277
_cell_length_b   5.63844354
_cell_length_c   3.91810271
_cell_angle_alpha   89.99999856
_cell_angle_beta   89.99999451
_cell_angle_gamma   90.00020518
_symmetry_Int_Tables_number   1
_chemical_formula_structural   ZnCd2S
_chemical_formula_sum   'Zn1 Cd2 S1'
_cell_volume   86.55872979
_cell_formula_units_Z   1
loop_
 _symmetry_equiv_pos_site_id
 _symmetry_equiv_pos_as_xyz
  1  'x, y, z'
loop_
 _atom_site_type_symbol
 _atom_site_label
 _atom_site_symmetry_multiplicity
 _atom_site_fract_x
 _atom_site_fract_y
 _atom_site_fract_z
 _atom_site_occupancy
  S  S0  1  0.50004741  0.49999806  0.00000810  1
  Zn  Zn1  1  0.00033407  0.00000001  0.50000143  1
  Cd  Cd2  1  0.50005150  0.00000655  0.00000456  1
  Cd  Cd3  1  -0.00000213  0.50000033  0.49999801  1
