# generated using pymatgen
data_ZnCd2S
_symmetry_space_group_name_H-M   'P 1'
_cell_length_a   3.91809691
_cell_length_b   5.63860840
_cell_length_c   3.91802889
_cell_angle_alpha   90.00007357
_cell_angle_beta   90.00024152
_cell_angle_gamma   90.00008378
_symmetry_Int_Tables_number   1
_chemical_formula_structural   ZnCd2S
_chemical_formula_sum   'Zn1 Cd2 S1'
_cell_volume   86.55950050
_cell_formula_units_Z   1
loop_
 _symmetry_equiv_pos_site_id
 _symmetry_equiv_pos_as_xyz
  1  'x, y, z'
loop_
 _atom_site_type_symbol
 _atom_site_label
 _atom_site_symmetry_multiplicity
 _atom_site_fract_x
 _atom_site_fract_y
 _atom_site_fract_z
 _atom_site_occupancy
  S  S0  1  0.49998354  0.49997698  0.00002854  1
  Zn  Zn1  1  0.00000966  0.00000890  0.50000389  1
  Cd  Cd2  1  0.50000253  0.00009885  0.00000985  1
  Cd  Cd3  1  0.00008717  0.50001166  0.49999366  1
