# generated using pymatgen
data_ZnCdS2
_symmetry_space_group_name_H-M   'P 1'
_cell_length_a   5.11841961
_cell_length_b   4.55909131
_cell_length_c   5.10390259
_cell_angle_alpha   90.00009598
_cell_angle_beta   90.00047096
_cell_angle_gamma   90.00001985
_symmetry_Int_Tables_number   1
_chemical_formula_structural   ZnCdS2
_chemical_formula_sum   'Zn1 Cd1 S2'
_cell_volume   119.10131431
_cell_formula_units_Z   1
loop_
 _symmetry_equiv_pos_site_id
 _symmetry_equiv_pos_as_xyz
  1  'x, y, z'
loop_
 _atom_site_type_symbol
 _atom_site_label
 _atom_site_symmetry_multiplicity
 _atom_site_fract_x
 _atom_site_fract_y
 _atom_site_fract_z
 _atom_site_occupancy
  S  S0  1  0.50002407  0.50010448  0.00037948  1
  Zn  Zn1  1  0.00011152  0.00020469  0.50001324  1
  Cd  Cd2  1  0.50002338  0.00010506  0.00031974  1
  S  S3  1  0.00008206  0.50007902  0.50015705  1
