# generated using pymatgen
data_ZnCd2S
_symmetry_space_group_name_H-M   'P 1'
_cell_length_a   3.91806199
_cell_length_b   5.63854462
_cell_length_c   3.91808159
_cell_angle_alpha   89.99985469
_cell_angle_beta   90.00066139
_cell_angle_gamma   90.00012818
_symmetry_Int_Tables_number   1
_chemical_formula_structural   ZnCd2S
_chemical_formula_sum   'Zn1 Cd2 S1'
_cell_volume   86.55891425
_cell_formula_units_Z   1
loop_
 _symmetry_equiv_pos_site_id
 _symmetry_equiv_pos_as_xyz
  1  'x, y, z'
loop_
 _atom_site_type_symbol
 _atom_site_label
 _atom_site_symmetry_multiplicity
 _atom_site_fract_x
 _atom_site_fract_y
 _atom_site_fract_z
 _atom_site_occupancy
  S  S0  1  0.49997196  0.50161207  0.00011339  1
  Zn  Zn1  1  0.00013138  0.00069339  0.50001365  1
  Cd  Cd2  1  0.50001917  0.00145122  0.00003864  1
  Cd  Cd3  1  0.00029042  0.50013009  0.49998270  1
