# generated using pymatgen
data_ZnCdGaS
_symmetry_space_group_name_H-M   'P 1'
_cell_length_a   3.67618934
_cell_length_b   6.78075183
_cell_length_c   3.62797536
_cell_angle_alpha   92.82278175
_cell_angle_beta   86.11893807
_cell_angle_gamma   79.42290543
_symmetry_Int_Tables_number   1
_chemical_formula_structural   ZnCdGaS
_chemical_formula_sum   'Zn1 Cd1 Ga1 S1'
_cell_volume   88.51972075
_cell_formula_units_Z   1
loop_
 _symmetry_equiv_pos_site_id
 _symmetry_equiv_pos_as_xyz
  1  'x, y, z'
loop_
 _atom_site_type_symbol
 _atom_site_label
 _atom_site_symmetry_multiplicity
 _atom_site_fract_x
 _atom_site_fract_y
 _atom_site_fract_z
 _atom_site_occupancy
  S  S0  1  0.50001025  0.49996464  -0.00013003  1
  Zn  Zn1  1  -0.00000019  -0.00001633  0.50000237  1
  Ga  Ga2  1  0.49996581  0.00005698  0.00001674  1
  Cd  Cd3  1  0.00028399  0.50002797  0.50013691  1
