# generated using pymatgen
data_ZnCdSe2
_symmetry_space_group_name_H-M   'P 1'
_cell_length_a   4.49619330
_cell_length_b   5.28925307
_cell_length_c   4.49619175
_cell_angle_alpha   89.99670556
_cell_angle_beta   107.77707442
_cell_angle_gamma   90.00331980
_symmetry_Int_Tables_number   1
_chemical_formula_structural   ZnCdSe2
_chemical_formula_sum   'Zn1 Cd1 Se2'
_cell_volume   101.82065134
_cell_formula_units_Z   1
loop_
 _symmetry_equiv_pos_site_id
 _symmetry_equiv_pos_as_xyz
  1  'x, y, z'
loop_
 _atom_site_type_symbol
 _atom_site_label
 _atom_site_symmetry_multiplicity
 _atom_site_fract_x
 _atom_site_fract_y
 _atom_site_fract_z
 _atom_site_occupancy
  Cd  Cd0  1  0.50002805  0.50000008  0.00000943  1
  Zn  Zn1  1  0.00028957  0.00000026  0.50012683  1
  Se  Se2  1  0.49991886  -0.00000001  -0.00012108  1
  Se  Se3  1  0.00005249  0.49999991  0.49998685  1
