# generated using pymatgen
data_ZnCdSeS
_symmetry_space_group_name_H-M   'P 1'
_cell_length_a   4.33467321
_cell_length_b   5.21708655
_cell_length_c   4.33466556
_cell_angle_alpha   89.99996974
_cell_angle_beta   107.38385730
_cell_angle_gamma   89.99996665
_symmetry_Int_Tables_number   1
_chemical_formula_structural   ZnCdSeS
_chemical_formula_sum   'Zn1 Cd1 Se1 S1'
_cell_volume   93.54834131
_cell_formula_units_Z   1
loop_
 _symmetry_equiv_pos_site_id
 _symmetry_equiv_pos_as_xyz
  1  'x, y, z'
loop_
 _atom_site_type_symbol
 _atom_site_label
 _atom_site_symmetry_multiplicity
 _atom_site_fract_x
 _atom_site_fract_y
 _atom_site_fract_z
 _atom_site_occupancy
  Cd  Cd0  1  0.50000039  0.50000003  -0.00000035  1
  Zn  Zn1  1  0.00000015  0.00000016  0.49999891  1
  Se  Se2  1  0.49999973  -0.00000001  0.00000828  1
  S  S3  1  0.00000132  0.50000002  0.50000040  1
