# generated using pymatgen
data_ZnCd2S
_symmetry_space_group_name_H-M   'P 1'
_cell_length_a   3.91812843
_cell_length_b   5.63845941
_cell_length_c   3.91809012
_cell_angle_alpha   90.00013893
_cell_angle_beta   90.00113659
_cell_angle_gamma   90.00010273
_symmetry_Int_Tables_number   1
_chemical_formula_structural   ZnCd2S
_chemical_formula_sum   'Zn1 Cd2 S1'
_cell_volume   86.55926235
_cell_formula_units_Z   1
loop_
 _symmetry_equiv_pos_site_id
 _symmetry_equiv_pos_as_xyz
  1  'x, y, z'
loop_
 _atom_site_type_symbol
 _atom_site_label
 _atom_site_symmetry_multiplicity
 _atom_site_fract_x
 _atom_site_fract_y
 _atom_site_fract_z
 _atom_site_occupancy
  S  S0  1  0.49988648  0.50007990  0.00003059  1
  Zn  Zn1  1  0.00043108  0.00014742  0.50016261  1
  Cd  Cd2  1  0.50006641  0.00000565  0.00126434  1
  Cd  Cd3  1  0.00086750  0.50016011  0.50001163  1
