# generated using pymatgen
data_ZnCd2S
_symmetry_space_group_name_H-M   'P 1'
_cell_length_a   3.91814562
_cell_length_b   5.63849664
_cell_length_c   3.91808915
_cell_angle_alpha   90.00019955
_cell_angle_beta   89.99961048
_cell_angle_gamma   90.00004294
_symmetry_Int_Tables_number   1
_chemical_formula_structural   ZnCd2S
_chemical_formula_sum   'Zn1 Cd2 S1'
_cell_volume   86.56019230
_cell_formula_units_Z   1
loop_
 _symmetry_equiv_pos_site_id
 _symmetry_equiv_pos_as_xyz
  1  'x, y, z'
loop_
 _atom_site_type_symbol
 _atom_site_label
 _atom_site_symmetry_multiplicity
 _atom_site_fract_x
 _atom_site_fract_y
 _atom_site_fract_z
 _atom_site_occupancy
  S  S0  1  0.49995279  0.49994769  0.00149343  1
  Zn  Zn1  1  0.00007978  0.00005797  0.50012902  1
  Cd  Cd2  1  0.50001419  0.00034363  -0.00000209  1
  Cd  Cd3  1  0.00029992  0.50006675  0.49968225  1
