# generated using pymatgen
data_ZnCdS2
_symmetry_space_group_name_H-M   'P 1'
_cell_length_a   5.11115879
_cell_length_b   4.55908892
_cell_length_c   5.11116123
_cell_angle_alpha   89.99967612
_cell_angle_beta   90.00010011
_cell_angle_gamma   89.99997013
_symmetry_Int_Tables_number   1
_chemical_formula_structural   ZnCdS2
_chemical_formula_sum   'Zn1 Cd1 S2'
_cell_volume   119.10144133
_cell_formula_units_Z   1
loop_
 _symmetry_equiv_pos_site_id
 _symmetry_equiv_pos_as_xyz
  1  'x, y, z'
loop_
 _atom_site_type_symbol
 _atom_site_label
 _atom_site_symmetry_multiplicity
 _atom_site_fract_x
 _atom_site_fract_y
 _atom_site_fract_z
 _atom_site_occupancy
  S  S0  1  0.50000011  0.50000041  -0.00000932  1
  Zn  Zn1  1  0.00001186  0.00000036  0.50000206  1
  Cd  Cd2  1  0.50000047  0.00000043  0.00004779  1
  S  S3  1  0.00000414  0.49999976  0.49999528  1
