# generated using pymatgen
data_ZnCdAsS
_symmetry_space_group_name_H-M   'P 1'
_cell_length_a   4.12870807
_cell_length_b   4.99190293
_cell_length_c   4.12870961
_cell_angle_alpha   90.00022495
_cell_angle_beta   89.99997723
_cell_angle_gamma   90.00019838
_symmetry_Int_Tables_number   1
_chemical_formula_structural   ZnCdAsS
_chemical_formula_sum   'Zn1 Cd1 As1 S1'
_cell_volume   85.09315878
_cell_formula_units_Z   1
loop_
 _symmetry_equiv_pos_site_id
 _symmetry_equiv_pos_as_xyz
  1  'x, y, z'
loop_
 _atom_site_type_symbol
 _atom_site_label
 _atom_site_symmetry_multiplicity
 _atom_site_fract_x
 _atom_site_fract_y
 _atom_site_fract_z
 _atom_site_occupancy
  S  S0  1  0.50015437  0.50024379  0.00009437  1
  Zn  Zn1  1  0.00032792  0.00007654  0.50015255  1
  Cd  Cd2  1  0.50006611  0.00025671  0.00065683  1
  As  As3  1  0.00010993  0.50006538  0.50006343  1
