# generated using pymatgen
data_ZnCd2S
_symmetry_space_group_name_H-M   'P 1'
_cell_length_a   3.91809611
_cell_length_b   5.63851155
_cell_length_c   3.91807498
_cell_angle_alpha   90.00025926
_cell_angle_beta   89.99827674
_cell_angle_gamma   90.00021626
_symmetry_Int_Tables_number   1
_chemical_formula_structural   ZnCd2S
_chemical_formula_sum   'Zn1 Cd2 S1'
_cell_volume   86.55901422
_cell_formula_units_Z   1
loop_
 _symmetry_equiv_pos_site_id
 _symmetry_equiv_pos_as_xyz
  1  'x, y, z'
loop_
 _atom_site_type_symbol
 _atom_site_label
 _atom_site_symmetry_multiplicity
 _atom_site_fract_x
 _atom_site_fract_y
 _atom_site_fract_z
 _atom_site_occupancy
  S  S0  1  0.50000059  0.50001186  0.00003436  1
  Zn  Zn1  1  0.00001888  0.00002142  0.50000525  1
  Cd  Cd2  1  0.50000273  0.00000056  0.00001685  1
  Cd  Cd3  1  0.00000923  0.50002369  0.49999274  1
