# generated using pymatgen
data_ZnCdS2
_symmetry_space_group_name_H-M   'P 1'
_cell_length_a   5.11115721
_cell_length_b   4.55908459
_cell_length_c   5.11115008
_cell_angle_alpha   90.00029129
_cell_angle_beta   90.00000298
_cell_angle_gamma   90.00028423
_symmetry_Int_Tables_number   1
_chemical_formula_structural   ZnCdS2
_chemical_formula_sum   'Zn1 Cd1 S2'
_cell_volume   119.10103151
_cell_formula_units_Z   1
loop_
 _symmetry_equiv_pos_site_id
 _symmetry_equiv_pos_as_xyz
  1  'x, y, z'
loop_
 _atom_site_type_symbol
 _atom_site_label
 _atom_site_symmetry_multiplicity
 _atom_site_fract_x
 _atom_site_fract_y
 _atom_site_fract_z
 _atom_site_occupancy
  S  S0  1  0.50000329  0.49999971  0.00001650  1
  Zn  Zn1  1  0.00000280  0.00002848  0.49999959  1
  Cd  Cd2  1  0.49999857  -0.00000012  0.00000410  1
  S  S3  1  0.00001148  0.50000040  0.50000296  1
