# generated using pymatgen
data_ZnCd2S
_symmetry_space_group_name_H-M   'P 1'
_cell_length_a   3.75735241
_cell_length_b   7.14811116
_cell_length_c   3.75734133
_cell_angle_alpha   90.00741975
_cell_angle_beta   90.00040608
_cell_angle_gamma   89.99150288
_symmetry_Int_Tables_number   1
_chemical_formula_structural   ZnCd2S
_chemical_formula_sum   'Zn1 Cd2 S1'
_cell_volume   100.91456886
_cell_formula_units_Z   1
loop_
 _symmetry_equiv_pos_site_id
 _symmetry_equiv_pos_as_xyz
  1  'x, y, z'
loop_
 _atom_site_type_symbol
 _atom_site_label
 _atom_site_symmetry_multiplicity
 _atom_site_fract_x
 _atom_site_fract_y
 _atom_site_fract_z
 _atom_site_occupancy
  Cd  Cd0  1  0.49998248  0.49995283  0.00000570  1
  Zn  Zn1  1  0.00000898  0.00074447  0.50000032  1
  Cd  Cd2  1  0.50002465  -0.00018369  -0.00000110  1
  S  S3  1  0.00003323  0.49961730  0.49999609  1
