# generated using pymatgen
data_ZnCd2S
_symmetry_space_group_name_H-M   'P 1'
_cell_length_a   3.91814306
_cell_length_b   5.63855893
_cell_length_c   3.91801636
_cell_angle_alpha   90.00004852
_cell_angle_beta   89.99975670
_cell_angle_gamma   90.00000232
_symmetry_Int_Tables_number   1
_chemical_formula_structural   ZnCd2S
_chemical_formula_sum   'Zn1 Cd2 S1'
_cell_volume   86.55948385
_cell_formula_units_Z   1
loop_
 _symmetry_equiv_pos_site_id
 _symmetry_equiv_pos_as_xyz
  1  'x, y, z'
loop_
 _atom_site_type_symbol
 _atom_site_label
 _atom_site_symmetry_multiplicity
 _atom_site_fract_x
 _atom_site_fract_y
 _atom_site_fract_z
 _atom_site_occupancy
  S  S0  1  0.49987454  0.50012678  0.00034245  1
  Zn  Zn1  1  0.00009320  0.00033530  0.50003503  1
  Cd  Cd2  1  0.50002133  0.00024663  0.00004117  1
  Cd  Cd3  1  0.00070492  0.50036720  0.49992726  1
