# generated using pymatgen
data_ZnCd2S
_symmetry_space_group_name_H-M   'P 1'
_cell_length_a   3.94650194
_cell_length_b   5.42794226
_cell_length_c   3.94652425
_cell_angle_alpha   89.99995004
_cell_angle_beta   90.00032977
_cell_angle_gamma   89.99999123
_symmetry_Int_Tables_number   1
_chemical_formula_structural   ZnCd2S
_chemical_formula_sum   'Zn1 Cd2 S1'
_cell_volume   84.54001396
_cell_formula_units_Z   1
loop_
 _symmetry_equiv_pos_site_id
 _symmetry_equiv_pos_as_xyz
  1  'x, y, z'
loop_
 _atom_site_type_symbol
 _atom_site_label
 _atom_site_symmetry_multiplicity
 _atom_site_fract_x
 _atom_site_fract_y
 _atom_site_fract_z
 _atom_site_occupancy
  Cd  Cd0  1  0.50003302  0.50000125  0.00000543  1
  Zn  Zn1  1  0.00005436  0.00000748  0.49989284  1
  S  S2  1  0.49997417  0.00000167  0.00018964  1
  Cd  Cd3  1  0.00006931  0.50000694  0.50000824  1
