# generated using pymatgen
data_ZnCd2S
_symmetry_space_group_name_H-M   'P 1'
_cell_length_a   3.91806426
_cell_length_b   5.63873643
_cell_length_c   3.91798892
_cell_angle_alpha   89.99962380
_cell_angle_beta   90.00007217
_cell_angle_gamma   90.00007534
_symmetry_Int_Tables_number   1
_chemical_formula_structural   ZnCd2S
_chemical_formula_sum   'Zn1 Cd2 S1'
_cell_volume   86.55986148
_cell_formula_units_Z   1
loop_
 _symmetry_equiv_pos_site_id
 _symmetry_equiv_pos_as_xyz
  1  'x, y, z'
loop_
 _atom_site_type_symbol
 _atom_site_label
 _atom_site_symmetry_multiplicity
 _atom_site_fract_x
 _atom_site_fract_y
 _atom_site_fract_z
 _atom_site_occupancy
  S  S0  1  0.50012137  0.49994097  -0.00005067  1
  Zn  Zn1  1  0.00017416  0.00000076  0.50171627  1
  Cd  Cd2  1  0.50021934  0.00011405  0.00204737  1
  Cd  Cd3  1  0.00003857  0.50002181  0.50016950  1
