# generated using pymatgen
data_ZnCdSeS
_symmetry_space_group_name_H-M   'P 1'
_cell_length_a   4.31828559
_cell_length_b   5.21659220
_cell_length_c   4.31830456
_cell_angle_alpha   92.80836388
_cell_angle_beta   107.13197764
_cell_angle_gamma   87.19164134
_symmetry_Int_Tables_number   1
_chemical_formula_structural   ZnCdSeS
_chemical_formula_sum   'Zn1 Cd1 Se1 S1'
_cell_volume   92.78844727
_cell_formula_units_Z   1
loop_
 _symmetry_equiv_pos_site_id
 _symmetry_equiv_pos_as_xyz
  1  'x, y, z'
loop_
 _atom_site_type_symbol
 _atom_site_label
 _atom_site_symmetry_multiplicity
 _atom_site_fract_x
 _atom_site_fract_y
 _atom_site_fract_z
 _atom_site_occupancy
  Cd  Cd0  1  0.49983955  0.50001494  0.00038142  1
  Zn  Zn1  1  0.00029201  0.00014666  0.50009085  1
  Se  Se2  1  0.50051345  -0.00003234  0.00008113  1
  S  S3  1  0.00032331  0.49993478  0.49997315  1
