# generated using pymatgen
data_ZnCd2S
_symmetry_space_group_name_H-M   'P 1'
_cell_length_a   3.91807594
_cell_length_b   5.63844406
_cell_length_c   3.91813336
_cell_angle_alpha   89.99985925
_cell_angle_beta   90.00050198
_cell_angle_gamma   90.00002376
_symmetry_Int_Tables_number   1
_chemical_formula_structural   ZnCd2S
_chemical_formula_sum   'Zn1 Cd2 S1'
_cell_volume   86.55882246
_cell_formula_units_Z   1
loop_
 _symmetry_equiv_pos_site_id
 _symmetry_equiv_pos_as_xyz
  1  'x, y, z'
loop_
 _atom_site_type_symbol
 _atom_site_label
 _atom_site_symmetry_multiplicity
 _atom_site_fract_x
 _atom_site_fract_y
 _atom_site_fract_z
 _atom_site_occupancy
  S  S0  1  0.50002714  0.49993321  0.00003556  1
  Zn  Zn1  1  0.00042231  0.00003113  0.50008795  1
  Cd  Cd2  1  0.50005713  0.00033769  0.00066620  1
  Cd  Cd3  1  0.00013602  0.50003762  0.50000143  1
