# generated using pymatgen
data_ZnCd2S
_symmetry_space_group_name_H-M   'P 1'
_cell_length_a   3.91802755
_cell_length_b   5.63863095
_cell_length_c   3.91809053
_cell_angle_alpha   90.00004438
_cell_angle_beta   89.99973650
_cell_angle_gamma   90.00012760
_symmetry_Int_Tables_number   1
_chemical_formula_structural   ZnCd2S
_chemical_formula_sum   'Zn1 Cd2 S1'
_cell_volume   86.55967603
_cell_formula_units_Z   1
loop_
 _symmetry_equiv_pos_site_id
 _symmetry_equiv_pos_as_xyz
  1  'x, y, z'
loop_
 _atom_site_type_symbol
 _atom_site_label
 _atom_site_symmetry_multiplicity
 _atom_site_fract_x
 _atom_site_fract_y
 _atom_site_fract_z
 _atom_site_occupancy
  S  S0  1  0.49997138  0.50000307  0.00004550  1
  Zn  Zn1  1  0.00004220  0.00005512  0.50001220  1
  Cd  Cd2  1  0.50000856  0.00010309  0.00005730  1
  Cd  Cd3  1  0.00016782  0.50006275  0.49999043  1
