# generated using pymatgen
data_ZnCdSeS
_symmetry_space_group_name_H-M   'P 1'
_cell_length_a   4.66522062
_cell_length_b   4.91916164
_cell_length_c   4.66525214
_cell_angle_alpha   89.99941050
_cell_angle_beta   89.99921829
_cell_angle_gamma   89.99980908
_symmetry_Int_Tables_number   1
_chemical_formula_structural   ZnCdSeS
_chemical_formula_sum   'Zn1 Cd1 Se1 S1'
_cell_volume   107.06275166
_cell_formula_units_Z   1
loop_
 _symmetry_equiv_pos_site_id
 _symmetry_equiv_pos_as_xyz
  1  'x, y, z'
loop_
 _atom_site_type_symbol
 _atom_site_label
 _atom_site_symmetry_multiplicity
 _atom_site_fract_x
 _atom_site_fract_y
 _atom_site_fract_z
 _atom_site_occupancy
  S  S0  1  0.50039960  0.49991391  0.00014991  1
  Zn  Zn1  1  0.00003367  0.00070512  0.49998928  1
  Cd  Cd2  1  0.49982870  -0.00009367  -0.00002569  1
  Se  Se3  1  0.00052917  0.50092442  0.50011400  1
