# generated using pymatgen
data_ZnCd2S
_symmetry_space_group_name_H-M   'P 1'
_cell_length_a   3.91805320
_cell_length_b   5.63859228
_cell_length_c   3.91808818
_cell_angle_alpha   90.00010733
_cell_angle_beta   90.00044129
_cell_angle_gamma   90.00006656
_symmetry_Int_Tables_number   1
_chemical_formula_structural   ZnCd2S
_chemical_formula_sum   'Zn1 Cd2 S1'
_cell_volume   86.55959728
_cell_formula_units_Z   1
loop_
 _symmetry_equiv_pos_site_id
 _symmetry_equiv_pos_as_xyz
  1  'x, y, z'
loop_
 _atom_site_type_symbol
 _atom_site_label
 _atom_site_symmetry_multiplicity
 _atom_site_fract_x
 _atom_site_fract_y
 _atom_site_fract_z
 _atom_site_occupancy
  S  S0  1  0.49986303  0.50000182  0.00013675  1
  Zn  Zn1  1  0.00001260  0.00000631  0.50001306  1
  Cd  Cd2  1  0.50001114  0.00000519  0.00000650  1
  Cd  Cd3  1  0.00068298  0.50000721  0.49996948  1
