# generated using pymatgen
data_ZnCd2S
_symmetry_space_group_name_H-M   'P 1'
_cell_length_a   3.94648842
_cell_length_b   5.42794348
_cell_length_c   3.94653332
_cell_angle_alpha   90.00041215
_cell_angle_beta   90.00040810
_cell_angle_gamma   90.00005064
_symmetry_Int_Tables_number   1
_chemical_formula_structural   ZnCd2S
_chemical_formula_sum   'Zn1 Cd2 S1'
_cell_volume   84.53993762
_cell_formula_units_Z   1
loop_
 _symmetry_equiv_pos_site_id
 _symmetry_equiv_pos_as_xyz
  1  'x, y, z'
loop_
 _atom_site_type_symbol
 _atom_site_label
 _atom_site_symmetry_multiplicity
 _atom_site_fract_x
 _atom_site_fract_y
 _atom_site_fract_z
 _atom_site_occupancy
  Cd  Cd0  1  0.50000075  0.50000314  0.00000333  1
  Zn  Zn1  1  0.00007007  0.00001022  0.49999143  1
  S  S2  1  0.49996362  0.00000405  0.00001522  1
  Cd  Cd3  1  0.00000066  0.50000949  0.50000213  1
