# generated using pymatgen
data_ZnCd2S
_symmetry_space_group_name_H-M   'P 1'
_cell_length_a   3.91808690
_cell_length_b   5.63847168
_cell_length_c   3.91809858
_cell_angle_alpha   90.00013463
_cell_angle_beta   90.00164013
_cell_angle_gamma   90.00014179
_symmetry_Int_Tables_number   1
_chemical_formula_structural   ZnCd2S
_chemical_formula_sum   'Zn1 Cd2 S1'
_cell_volume   86.55872021
_cell_formula_units_Z   1
loop_
 _symmetry_equiv_pos_site_id
 _symmetry_equiv_pos_as_xyz
  1  'x, y, z'
loop_
 _atom_site_type_symbol
 _atom_site_label
 _atom_site_symmetry_multiplicity
 _atom_site_fract_x
 _atom_site_fract_y
 _atom_site_fract_z
 _atom_site_occupancy
  S  S0  1  0.49999699  0.49999956  0.00000006  1
  Zn  Zn1  1  0.00001455  0.00000156  0.50003109  1
  Cd  Cd2  1  0.50000225  0.00000232  0.00023570  1
  Cd  Cd3  1  0.00002475  0.50000181  0.50000324  1
