# generated using pymatgen
data_ZnCdS2
_symmetry_space_group_name_H-M   'P 1'
_cell_length_a   5.11111885
_cell_length_b   4.55908352
_cell_length_c   5.11111438
_cell_angle_alpha   89.99959220
_cell_angle_beta   90.00009825
_cell_angle_gamma   89.99991420
_symmetry_Int_Tables_number   1
_chemical_formula_structural   ZnCdS2
_chemical_formula_sum   'Zn1 Cd1 S2'
_cell_volume   119.09927795
_cell_formula_units_Z   1
loop_
 _symmetry_equiv_pos_site_id
 _symmetry_equiv_pos_as_xyz
  1  'x, y, z'
loop_
 _atom_site_type_symbol
 _atom_site_label
 _atom_site_symmetry_multiplicity
 _atom_site_fract_x
 _atom_site_fract_y
 _atom_site_fract_z
 _atom_site_occupancy
  S  S0  1  0.49999703  0.50006313  0.00001426  1
  Zn  Zn1  1  0.00020928  0.00004701  0.50000269  1
  Cd  Cd2  1  0.50000663  0.00006333  0.00010799  1
  S  S3  1  0.00005760  0.49999546  0.49999802  1
