# generated using pymatgen
data_ZnCdSe2
_symmetry_space_group_name_H-M   'P 1'
_cell_length_a   4.49618777
_cell_length_b   5.28925438
_cell_length_c   4.49621440
_cell_angle_alpha   90.00025127
_cell_angle_beta   72.22270912
_cell_angle_gamma   89.99998593
_symmetry_Int_Tables_number   1
_chemical_formula_structural   ZnCdSe2
_chemical_formula_sum   'Zn1 Cd1 Se2'
_cell_volume   101.82094106
_cell_formula_units_Z   1
loop_
 _symmetry_equiv_pos_site_id
 _symmetry_equiv_pos_as_xyz
  1  'x, y, z'
loop_
 _atom_site_type_symbol
 _atom_site_label
 _atom_site_symmetry_multiplicity
 _atom_site_fract_x
 _atom_site_fract_y
 _atom_site_fract_z
 _atom_site_occupancy
  Cd  Cd0  1  0.50004458  0.50007368  0.00004632  1
  Zn  Zn1  1  0.00009354  0.00002206  0.50002935  1
  Se  Se2  1  0.50014100  0.00005610  -0.00002929  1
  Se  Se3  1  0.00050069  0.50004938  0.50011828  1
