# generated using pymatgen
data_ZnCd2S
_symmetry_space_group_name_H-M   'P 1'
_cell_length_a   3.91810144
_cell_length_b   5.63855842
_cell_length_c   3.91804948
_cell_angle_alpha   90.00004349
_cell_angle_beta   90.00053951
_cell_angle_gamma   90.00004929
_symmetry_Int_Tables_number   1
_chemical_formula_structural   ZnCd2S
_chemical_formula_sum   'Zn1 Cd2 S1'
_cell_volume   86.55928811
_cell_formula_units_Z   1
loop_
 _symmetry_equiv_pos_site_id
 _symmetry_equiv_pos_as_xyz
  1  'x, y, z'
loop_
 _atom_site_type_symbol
 _atom_site_label
 _atom_site_symmetry_multiplicity
 _atom_site_fract_x
 _atom_site_fract_y
 _atom_site_fract_z
 _atom_site_occupancy
  S  S0  1  0.49999028  0.49998039  0.00049377  1
  Zn  Zn1  1  0.00000226  0.00000716  0.50005580  1
  Cd  Cd2  1  0.50000095  0.00008318  0.00008292  1
  Cd  Cd3  1  0.00004978  0.50000938  0.49989084  1
