# generated using pymatgen
data_ZnCd2S
_symmetry_space_group_name_H-M   'P 1'
_cell_length_a   3.91808043
_cell_length_b   5.63857796
_cell_length_c   3.91805760
_cell_angle_alpha   89.99986661
_cell_angle_beta   90.00038208
_cell_angle_gamma   89.99995215
_symmetry_Int_Tables_number   1
_chemical_formula_structural   ZnCd2S
_chemical_formula_sum   'Zn1 Cd2 S1'
_cell_volume   86.55930349
_cell_formula_units_Z   1
loop_
 _symmetry_equiv_pos_site_id
 _symmetry_equiv_pos_as_xyz
  1  'x, y, z'
loop_
 _atom_site_type_symbol
 _atom_site_label
 _atom_site_symmetry_multiplicity
 _atom_site_fract_x
 _atom_site_fract_y
 _atom_site_fract_z
 _atom_site_occupancy
  S  S0  1  0.49998297  0.50002763  0.00001498  1
  Zn  Zn1  1  0.00001423  0.00004361  0.50000141  1
  Cd  Cd2  1  0.50000341  -0.00000233  0.00000061  1
  Cd  Cd3  1  0.00008992  0.50004818  0.49999623  1
