# generated using pymatgen
data_ZnCd2S
_symmetry_space_group_name_H-M   'P 1'
_cell_length_a   3.91800093
_cell_length_b   5.63861887
_cell_length_c   3.91812153
_cell_angle_alpha   89.99992820
_cell_angle_beta   90.00028273
_cell_angle_gamma   89.99991705
_symmetry_Int_Tables_number   1
_chemical_formula_structural   ZnCd2S
_chemical_formula_sum   'Zn1 Cd2 S1'
_cell_volume   86.55958728
_cell_formula_units_Z   1
loop_
 _symmetry_equiv_pos_site_id
 _symmetry_equiv_pos_as_xyz
  1  'x, y, z'
loop_
 _atom_site_type_symbol
 _atom_site_label
 _atom_site_symmetry_multiplicity
 _atom_site_fract_x
 _atom_site_fract_y
 _atom_site_fract_z
 _atom_site_occupancy
  S  S0  1  0.50000410  0.50000121  0.00006637  1
  Zn  Zn1  1  0.00004292  0.00000260  0.50001237  1
  Cd  Cd2  1  0.50000635  0.00000122  0.00004466  1
  Cd  Cd3  1  0.00000734  0.50000298  0.49998550  1
