# generated using pymatgen
data_ZnCdGaS
_symmetry_space_group_name_H-M   'P 1'
_cell_length_a   5.05334487
_cell_length_b   5.37140198
_cell_length_c   3.79690590
_cell_angle_alpha   100.39652936
_cell_angle_beta   69.11812173
_cell_angle_gamma   97.16882947
_symmetry_Int_Tables_number   1
_chemical_formula_structural   ZnCdGaS
_chemical_formula_sum   'Zn1 Cd1 Ga1 S1'
_cell_volume   94.50598190
_cell_formula_units_Z   1
loop_
 _symmetry_equiv_pos_site_id
 _symmetry_equiv_pos_as_xyz
  1  'x, y, z'
loop_
 _atom_site_type_symbol
 _atom_site_label
 _atom_site_symmetry_multiplicity
 _atom_site_fract_x
 _atom_site_fract_y
 _atom_site_fract_z
 _atom_site_occupancy
  S  S0  1  0.50000630  0.50003777  0.00000376  1
  Zn  Zn1  1  -0.00000425  0.00002149  0.50000445  1
  Ga  Ga2  1  0.50002392  -0.00003704  0.00004593  1
  Cd  Cd3  1  -0.00000372  0.50001638  0.49999417  1
