# generated using pymatgen
data_ZnCdSe2
_symmetry_space_group_name_H-M   'P 1'
_cell_length_a   4.58779843
_cell_length_b   5.34814493
_cell_length_c   5.02938886
_cell_angle_alpha   96.09430670
_cell_angle_beta   85.27508365
_cell_angle_gamma   89.57289126
_symmetry_Int_Tables_number   1
_chemical_formula_structural   ZnCdSe2
_chemical_formula_sum   'Zn1 Cd1 Se2'
_cell_volume   122.27140569
_cell_formula_units_Z   1
loop_
 _symmetry_equiv_pos_site_id
 _symmetry_equiv_pos_as_xyz
  1  'x, y, z'
loop_
 _atom_site_type_symbol
 _atom_site_label
 _atom_site_symmetry_multiplicity
 _atom_site_fract_x
 _atom_site_fract_y
 _atom_site_fract_z
 _atom_site_occupancy
  Se  Se0  1  0.49996096  0.50003334  0.00004778  1
  Zn  Zn1  1  0.00009617  0.00037043  0.50000179  1
  Cd  Cd2  1  0.49998152  0.00001271  0.00008286  1
  Se  Se3  1  0.00007998  0.49999614  0.49992944  1
