# generated using pymatgen
data_ZnCd2S
_symmetry_space_group_name_H-M   'P 1'
_cell_length_a   3.91806916
_cell_length_b   5.63853333
_cell_length_c   3.91809125
_cell_angle_alpha   90.00006999
_cell_angle_beta   89.99892310
_cell_angle_gamma   90.00014349
_symmetry_Int_Tables_number   1
_chemical_formula_structural   ZnCd2S
_chemical_formula_sum   'Zn1 Cd2 S1'
_cell_volume   86.55911246
_cell_formula_units_Z   1
loop_
 _symmetry_equiv_pos_site_id
 _symmetry_equiv_pos_as_xyz
  1  'x, y, z'
loop_
 _atom_site_type_symbol
 _atom_site_label
 _atom_site_symmetry_multiplicity
 _atom_site_fract_x
 _atom_site_fract_y
 _atom_site_fract_z
 _atom_site_occupancy
  S  S0  1  0.50000503  0.49995421  0.00000412  1
  Zn  Zn1  1  0.00004252  0.00000305  0.50000318  1
  Cd  Cd2  1  0.50000587  0.00018186  0.00002142  1
  Cd  Cd3  1  0.00000270  0.50000576  0.49999934  1
