# generated using pymatgen
data_ZnCdS2
_symmetry_space_group_name_H-M   'P 1'
_cell_length_a   5.11239050
_cell_length_b   4.55908660
_cell_length_c   5.10993910
_cell_angle_alpha   89.99934144
_cell_angle_beta   89.99985435
_cell_angle_gamma   89.99998050
_symmetry_Int_Tables_number   1
_chemical_formula_structural   ZnCdS2
_chemical_formula_sum   'Zn1 Cd1 S2'
_cell_volume   119.10159686
_cell_formula_units_Z   1
loop_
 _symmetry_equiv_pos_site_id
 _symmetry_equiv_pos_as_xyz
  1  'x, y, z'
loop_
 _atom_site_type_symbol
 _atom_site_label
 _atom_site_symmetry_multiplicity
 _atom_site_fract_x
 _atom_site_fract_y
 _atom_site_fract_z
 _atom_site_occupancy
  S  S0  1  0.49999965  0.50000992  0.00057720  1
  Zn  Zn1  1  0.00037804  0.00000856  0.49994205  1
  Cd  Cd2  1  0.49999233  0.00001002  0.00040889  1
  S  S3  1  0.00004217  0.50000351  0.50024665  1
