# generated using pymatgen
data_ZnCdS2
_symmetry_space_group_name_H-M   'P 1'
_cell_length_a   5.11248736
_cell_length_b   4.55908685
_cell_length_c   5.10983227
_cell_angle_alpha   89.99961682
_cell_angle_beta   90.00118697
_cell_angle_gamma   90.00004573
_symmetry_Int_Tables_number   1
_chemical_formula_structural   ZnCdS2
_chemical_formula_sum   'Zn1 Cd1 S2'
_cell_volume   119.10136991
_cell_formula_units_Z   1
loop_
 _symmetry_equiv_pos_site_id
 _symmetry_equiv_pos_as_xyz
  1  'x, y, z'
loop_
 _atom_site_type_symbol
 _atom_site_label
 _atom_site_symmetry_multiplicity
 _atom_site_fract_x
 _atom_site_fract_y
 _atom_site_fract_z
 _atom_site_occupancy
  S  S0  1  0.49999346  0.50012207  0.00066938  1
  Zn  Zn1  1  0.00024069  0.00022720  0.50001778  1
  Cd  Cd2  1  0.50002325  0.00012222  0.00054483  1
  S  S3  1  0.00011672  0.50001020  0.50022442  1
