# generated using pymatgen
data_ZnCd2S
_symmetry_space_group_name_H-M   'P 1'
_cell_length_a   3.91806826
_cell_length_b   5.63856578
_cell_length_c   3.91807002
_cell_angle_alpha   89.99996583
_cell_angle_beta   90.00008976
_cell_angle_gamma   89.99994766
_symmetry_Int_Tables_number   1
_chemical_formula_structural   ZnCd2S
_chemical_formula_sum   'Zn1 Cd2 S1'
_cell_volume   86.55912201
_cell_formula_units_Z   1
loop_
 _symmetry_equiv_pos_site_id
 _symmetry_equiv_pos_as_xyz
  1  'x, y, z'
loop_
 _atom_site_type_symbol
 _atom_site_label
 _atom_site_symmetry_multiplicity
 _atom_site_fract_x
 _atom_site_fract_y
 _atom_site_fract_z
 _atom_site_occupancy
  S  S0  1  0.50000288  0.49999720  0.00000821  1
  Zn  Zn1  1  0.00003278  0.00000017  0.50000176  1
  Cd  Cd2  1  0.50000510  0.00000987  0.00000710  1
  Cd  Cd3  1  0.00000818  0.50000056  0.49999809  1
