# generated using pymatgen
data_ZnCd2S
_symmetry_space_group_name_H-M   'P 1'
_cell_length_a   3.91806179
_cell_length_b   5.63860605
_cell_length_c   3.91806259
_cell_angle_alpha   90.00006089
_cell_angle_beta   90.00084053
_cell_angle_gamma   90.00008217
_symmetry_Int_Tables_number   1
_chemical_formula_structural   ZnCd2S
_chemical_formula_sum   'Zn1 Cd2 S1'
_cell_volume   86.55943304
_cell_formula_units_Z   1
loop_
 _symmetry_equiv_pos_site_id
 _symmetry_equiv_pos_as_xyz
  1  'x, y, z'
loop_
 _atom_site_type_symbol
 _atom_site_label
 _atom_site_symmetry_multiplicity
 _atom_site_fract_x
 _atom_site_fract_y
 _atom_site_fract_z
 _atom_site_occupancy
  S  S0  1  0.50000000  0.49999793  0.00017892  1
  Zn  Zn1  1  0.00000383  0.00000036  0.50001683  1
  Cd  Cd2  1  0.50000052  0.00000731  0.00000492  1
  Cd  Cd3  1  0.00000258  0.50000072  0.49995968  1
