# generated using pymatgen
data_ZnCd2S
_symmetry_space_group_name_H-M   'P 1'
_cell_length_a   3.91811977
_cell_length_b   5.63844840
_cell_length_c   3.91809625
_cell_angle_alpha   90.00020369
_cell_angle_beta   89.99967161
_cell_angle_gamma   90.00017856
_symmetry_Int_Tables_number   1
_chemical_formula_structural   ZnCd2S
_chemical_formula_sum   'Zn1 Cd2 S1'
_cell_volume   86.55903733
_cell_formula_units_Z   1
loop_
 _symmetry_equiv_pos_site_id
 _symmetry_equiv_pos_as_xyz
  1  'x, y, z'
loop_
 _atom_site_type_symbol
 _atom_site_label
 _atom_site_symmetry_multiplicity
 _atom_site_fract_x
 _atom_site_fract_y
 _atom_site_fract_z
 _atom_site_occupancy
  S  S0  1  0.50001066  0.50021725  0.00004364  1
  Zn  Zn1  1  0.00018805  0.00006350  0.50000391  1
  Cd  Cd2  1  0.50000656  0.00018702  0.00003671  1
  Cd  Cd3  1  0.00000889  0.50000404  0.49999591  1
