# generated using pymatgen
data_ZnCdSeS
_symmetry_space_group_name_H-M   'P 1'
_cell_length_a   4.66539545
_cell_length_b   4.91916589
_cell_length_c   4.66508680
_cell_angle_alpha   89.99993248
_cell_angle_beta   90.00012875
_cell_angle_gamma   90.00029497
_symmetry_Int_Tables_number   1
_chemical_formula_structural   ZnCdSeS
_chemical_formula_sum   'Zn1 Cd1 Se1 S1'
_cell_volume   107.06306167
_cell_formula_units_Z   1
loop_
 _symmetry_equiv_pos_site_id
 _symmetry_equiv_pos_as_xyz
  1  'x, y, z'
loop_
 _atom_site_type_symbol
 _atom_site_label
 _atom_site_symmetry_multiplicity
 _atom_site_fract_x
 _atom_site_fract_y
 _atom_site_fract_z
 _atom_site_occupancy
  S  S0  1  0.49999958  0.50013226  0.00006202  1
  Zn  Zn1  1  0.00033166  0.00005877  0.49999520  1
  Cd  Cd2  1  0.49999453  0.00014257  0.00031586  1
  Se  Se3  1  0.00003602  0.50001683  0.49999565  1
