# generated using pymatgen
data_ZnCd2S
_symmetry_space_group_name_H-M   'P 1'
_cell_length_a   3.80698848
_cell_length_b   6.19877114
_cell_length_c   3.80529201
_cell_angle_alpha   89.75226551
_cell_angle_beta   90.06019300
_cell_angle_gamma   90.36778907
_symmetry_Int_Tables_number   1
_chemical_formula_structural   ZnCd2S
_chemical_formula_sum   'Zn1 Cd2 S1'
_cell_volume   89.79701921
_cell_formula_units_Z   1
loop_
 _symmetry_equiv_pos_site_id
 _symmetry_equiv_pos_as_xyz
  1  'x, y, z'
loop_
 _atom_site_type_symbol
 _atom_site_label
 _atom_site_symmetry_multiplicity
 _atom_site_fract_x
 _atom_site_fract_y
 _atom_site_fract_z
 _atom_site_occupancy
  Cd  Cd0  1  0.50002758  0.49998457  0.00003153  1
  Zn  Zn1  1  0.00031380  0.00042757  0.50013389  1
  Cd  Cd2  1  0.50022997  -0.00006016  0.00015618  1
  S  S3  1  0.00009287  0.49968012  0.50006815  1
