# generated using pymatgen
data_ZnCdSeS
_symmetry_space_group_name_H-M   'P 1'
_cell_length_a   4.42227191
_cell_length_b   5.11422953
_cell_length_c   4.27709046
_cell_angle_alpha   90.00002529
_cell_angle_beta   106.15327869
_cell_angle_gamma   90.00007117
_symmetry_Int_Tables_number   1
_chemical_formula_structural   ZnCdSeS
_chemical_formula_sum   'Zn1 Cd1 Se1 S1'
_cell_volume   92.91394453
_cell_formula_units_Z   1
loop_
 _symmetry_equiv_pos_site_id
 _symmetry_equiv_pos_as_xyz
  1  'x, y, z'
loop_
 _atom_site_type_symbol
 _atom_site_label
 _atom_site_symmetry_multiplicity
 _atom_site_fract_x
 _atom_site_fract_y
 _atom_site_fract_z
 _atom_site_occupancy
  Cd  Cd0  1  0.50000349  0.50008510  0.00004355  1
  Zn  Zn1  1  0.00004833  0.00003689  0.49989600  1
  S  S2  1  0.49997566  0.00007541  0.00015317  1
  Se  Se3  1  0.00002820  0.50005132  0.50002857  1
