# generated using pymatgen
data_ZnCdSeS
_symmetry_space_group_name_H-M   'P 1'
_cell_length_a   4.33468958
_cell_length_b   5.21708715
_cell_length_c   4.33462865
_cell_angle_alpha   90.00003676
_cell_angle_beta   107.38353996
_cell_angle_gamma   90.00004813
_symmetry_Int_Tables_number   1
_chemical_formula_structural   ZnCdSeS
_chemical_formula_sum   'Zn1 Cd1 Se1 S1'
_cell_volume   93.54807112
_cell_formula_units_Z   1
loop_
 _symmetry_equiv_pos_site_id
 _symmetry_equiv_pos_as_xyz
  1  'x, y, z'
loop_
 _atom_site_type_symbol
 _atom_site_label
 _atom_site_symmetry_multiplicity
 _atom_site_fract_x
 _atom_site_fract_y
 _atom_site_fract_z
 _atom_site_occupancy
  Cd  Cd0  1  0.50000231  0.50000436  -0.00000277  1
  Zn  Zn1  1  -0.00000590  -0.00000489  0.49999785  1
  Se  Se2  1  0.50000854  0.00000528  0.00000457  1
  S  S3  1  0.00001445  0.50000586  0.50000383  1
