# generated using pymatgen
data_ZnCdAsS
_symmetry_space_group_name_H-M   'P 1'
_cell_length_a   4.32571022
_cell_length_b   5.01035039
_cell_length_c   4.32570989
_cell_angle_alpha   89.99999490
_cell_angle_beta   90.00000158
_cell_angle_gamma   90.00003252
_symmetry_Int_Tables_number   1
_chemical_formula_structural   ZnCdAsS
_chemical_formula_sum   'Zn1 Cd1 As1 S1'
_cell_volume   93.75251138
_cell_formula_units_Z   1
loop_
 _symmetry_equiv_pos_site_id
 _symmetry_equiv_pos_as_xyz
  1  'x, y, z'
loop_
 _atom_site_type_symbol
 _atom_site_label
 _atom_site_symmetry_multiplicity
 _atom_site_fract_x
 _atom_site_fract_y
 _atom_site_fract_z
 _atom_site_occupancy
  Cd  Cd0  1  0.49999668  0.50000265  0.00000089  1
  Zn  Zn1  1  0.00000542  0.00001853  0.49999997  1
  S  S2  1  0.50000199  0.00000223  0.00000079  1
  As  As3  1  0.00006604  0.50001389  0.50000000  1
