# generated using pymatgen
data_ZnCd2S
_symmetry_space_group_name_H-M   'P 1'
_cell_length_a   3.91805609
_cell_length_b   5.63860581
_cell_length_c   3.91806754
_cell_angle_alpha   90.00006522
_cell_angle_beta   90.00104483
_cell_angle_gamma   90.00013488
_symmetry_Int_Tables_number   1
_chemical_formula_structural   ZnCd2S
_chemical_formula_sum   'Zn1 Cd2 S1'
_cell_volume   86.55941280
_cell_formula_units_Z   1
loop_
 _symmetry_equiv_pos_site_id
 _symmetry_equiv_pos_as_xyz
  1  'x, y, z'
loop_
 _atom_site_type_symbol
 _atom_site_label
 _atom_site_symmetry_multiplicity
 _atom_site_fract_x
 _atom_site_fract_y
 _atom_site_fract_z
 _atom_site_occupancy
  S  S0  1  0.49999838  0.49999921  0.00000004  1
  Zn  Zn1  1  0.00001222  0.00000004  0.50000027  1
  Cd  Cd2  1  0.50000218  0.00000131  0.00000256  1
  Cd  Cd3  1  0.00001563  0.50000045  0.50000005  1
