# generated using pymatgen
data_ZnCdS2
_symmetry_space_group_name_H-M   'P 1'
_cell_length_a   4.17725056
_cell_length_b   5.06069978
_cell_length_c   4.17726340
_cell_angle_alpha   90.00015621
_cell_angle_beta   74.92329972
_cell_angle_gamma   90.00009611
_symmetry_Int_Tables_number   1
_chemical_formula_structural   ZnCdS2
_chemical_formula_sum   'Zn1 Cd1 S2'
_cell_volume   85.26691336
_cell_formula_units_Z   1
loop_
 _symmetry_equiv_pos_site_id
 _symmetry_equiv_pos_as_xyz
  1  'x, y, z'
loop_
 _atom_site_type_symbol
 _atom_site_label
 _atom_site_symmetry_multiplicity
 _atom_site_fract_x
 _atom_site_fract_y
 _atom_site_fract_z
 _atom_site_occupancy
  Cd  Cd0  1  0.50063573  0.50002957  0.00051052  1
  Zn  Zn1  1  0.00069830  0.00002219  0.50052492  1
  S  S2  1  0.50045492  0.00005230  0.00019170  1
  S  S3  1  0.00038142  0.50005105  0.50049990  1
