# generated using pymatgen
data_ZnCd2S
_symmetry_space_group_name_H-M   'P 1'
_cell_length_a   3.91809399
_cell_length_b   5.63860574
_cell_length_c   3.91803546
_cell_angle_alpha   90.00007487
_cell_angle_beta   90.00024225
_cell_angle_gamma   90.00010364
_symmetry_Int_Tables_number   1
_chemical_formula_structural   ZnCd2S
_chemical_formula_sum   'Zn1 Cd2 S1'
_cell_volume   86.55954048
_cell_formula_units_Z   1
loop_
 _symmetry_equiv_pos_site_id
 _symmetry_equiv_pos_as_xyz
  1  'x, y, z'
loop_
 _atom_site_type_symbol
 _atom_site_label
 _atom_site_symmetry_multiplicity
 _atom_site_fract_x
 _atom_site_fract_y
 _atom_site_fract_z
 _atom_site_occupancy
  S  S0  1  0.49999334  0.49999440  0.00000669  1
  Zn  Zn1  1  0.00000233  0.00000553  0.50000974  1
  Cd  Cd2  1  0.50000072  0.00003002  0.00006558  1
  Cd  Cd3  1  0.00003495  0.50000686  0.49999947  1
