# generated using pymatgen
data_ZnCdS2
_symmetry_space_group_name_H-M   'P 1'
_cell_length_a   4.17741591
_cell_length_b   5.06072526
_cell_length_c   4.17712385
_cell_angle_alpha   89.99976894
_cell_angle_beta   105.07697662
_cell_angle_gamma   90.00056603
_symmetry_Int_Tables_number   1
_chemical_formula_structural   ZnCdS2
_chemical_formula_sum   'Zn1 Cd1 S2'
_cell_volume   85.26775825
_cell_formula_units_Z   1
loop_
 _symmetry_equiv_pos_site_id
 _symmetry_equiv_pos_as_xyz
  1  'x, y, z'
loop_
 _atom_site_type_symbol
 _atom_site_label
 _atom_site_symmetry_multiplicity
 _atom_site_fract_x
 _atom_site_fract_y
 _atom_site_fract_z
 _atom_site_occupancy
  Cd  Cd0  1  0.50030354  0.50017489  -0.00023784  1
  Zn  Zn1  1  -0.00011044  0.00018876  0.50009622  1
  S  S2  1  0.50007844  0.00027224  -0.00009426  1
  S  S3  1  -0.00017468  0.50014045  0.50024190  1
