# generated using pymatgen
data_ZnCdSeS
_symmetry_space_group_name_H-M   'P 1'
_cell_length_a   4.66524018
_cell_length_b   4.91915711
_cell_length_c   4.66524735
_cell_angle_alpha   89.99998484
_cell_angle_beta   89.99985366
_cell_angle_gamma   89.99999273
_symmetry_Int_Tables_number   1
_chemical_formula_structural   ZnCdSeS
_chemical_formula_sum   'Zn1 Cd1 Se1 S1'
_cell_volume   107.06299199
_cell_formula_units_Z   1
loop_
 _symmetry_equiv_pos_site_id
 _symmetry_equiv_pos_as_xyz
  1  'x, y, z'
loop_
 _atom_site_type_symbol
 _atom_site_label
 _atom_site_symmetry_multiplicity
 _atom_site_fract_x
 _atom_site_fract_y
 _atom_site_fract_z
 _atom_site_occupancy
  S  S0  1  0.50001655  0.50020222  0.00012084  1
  Zn  Zn1  1  0.00050491  -0.00002392  0.49995158  1
  Cd  Cd2  1  0.49994020  0.00020336  0.00053886  1
  Se  Se3  1  0.00006502  0.49995468  0.50004209  1
