# generated using pymatgen
data_ZnCd2S
_symmetry_space_group_name_H-M   'P 1'
_cell_length_a   3.91805284
_cell_length_b   5.63861971
_cell_length_c   3.91806421
_cell_angle_alpha   90.00002245
_cell_angle_beta   89.99979430
_cell_angle_gamma   90.00000041
_symmetry_Int_Tables_number   1
_chemical_formula_structural   ZnCd2S
_chemical_formula_sum   'Zn1 Cd2 S1'
_cell_volume   86.55948085
_cell_formula_units_Z   1
loop_
 _symmetry_equiv_pos_site_id
 _symmetry_equiv_pos_as_xyz
  1  'x, y, z'
loop_
 _atom_site_type_symbol
 _atom_site_label
 _atom_site_symmetry_multiplicity
 _atom_site_fract_x
 _atom_site_fract_y
 _atom_site_fract_z
 _atom_site_occupancy
  S  S0  1  0.49999948  0.49999907  0.00000001  1
  Zn  Zn1  1  0.00000033  0.00000020  0.50000003  1
  Cd  Cd2  1  0.50000014  0.00000214  0.00000134  1
  Cd  Cd3  1  0.00000293  0.50000039  0.50000011  1
