# generated using pymatgen
data_ZnCd2S
_symmetry_space_group_name_H-M   'P 1'
_cell_length_a   3.91810097
_cell_length_b   5.63854076
_cell_length_c   3.91803489
_cell_angle_alpha   89.99995753
_cell_angle_beta   89.99895831
_cell_angle_gamma   89.99980819
_symmetry_Int_Tables_number   1
_chemical_formula_structural   ZnCd2S
_chemical_formula_sum   'Zn1 Cd2 S1'
_cell_volume   86.55868440
_cell_formula_units_Z   1
loop_
 _symmetry_equiv_pos_site_id
 _symmetry_equiv_pos_as_xyz
  1  'x, y, z'
loop_
 _atom_site_type_symbol
 _atom_site_label
 _atom_site_symmetry_multiplicity
 _atom_site_fract_x
 _atom_site_fract_y
 _atom_site_fract_z
 _atom_site_occupancy
  S  S0  1  0.50000150  0.50018343  0.00044507  1
  Zn  Zn1  1  0.00008986  0.00006540  0.50002275  1
  Cd  Cd2  1  0.50000035  0.00022535  0.00024162  1
  Cd  Cd3  1  0.00003921  0.50001605  0.49997714  1
