# generated using pymatgen
data_ZnCd2S
_symmetry_space_group_name_H-M   'P 1'
_cell_length_a   3.91803232
_cell_length_b   5.63856871
_cell_length_c   3.91810763
_cell_angle_alpha   89.99998501
_cell_angle_beta   90.00228880
_cell_angle_gamma   90.00014631
_symmetry_Int_Tables_number   1
_chemical_formula_structural   ZnCd2S
_chemical_formula_sum   'Zn1 Cd2 S1'
_cell_volume   86.55920374
_cell_formula_units_Z   1
loop_
 _symmetry_equiv_pos_site_id
 _symmetry_equiv_pos_as_xyz
  1  'x, y, z'
loop_
 _atom_site_type_symbol
 _atom_site_label
 _atom_site_symmetry_multiplicity
 _atom_site_fract_x
 _atom_site_fract_y
 _atom_site_fract_z
 _atom_site_occupancy
  S  S0  1  0.50000550  0.49999840  0.00003052  1
  Zn  Zn1  1  0.00004441  0.00000039  0.50002044  1
  Cd  Cd2  1  0.50000606  0.00000492  0.00013473  1
  Cd  Cd3  1  0.00000109  0.50000080  0.49999522  1
