# generated using pymatgen
data_ZnCd2S
_symmetry_space_group_name_H-M   'P 1'
_cell_length_a   3.91809841
_cell_length_b   5.63855356
_cell_length_c   3.91806795
_cell_angle_alpha   90.00005649
_cell_angle_beta   90.00032070
_cell_angle_gamma   90.00012824
_symmetry_Int_Tables_number   1
_chemical_formula_structural   ZnCd2S
_chemical_formula_sum   'Zn1 Cd2 S1'
_cell_volume   86.55955471
_cell_formula_units_Z   1
loop_
 _symmetry_equiv_pos_site_id
 _symmetry_equiv_pos_as_xyz
  1  'x, y, z'
loop_
 _atom_site_type_symbol
 _atom_site_label
 _atom_site_symmetry_multiplicity
 _atom_site_fract_x
 _atom_site_fract_y
 _atom_site_fract_z
 _atom_site_occupancy
  S  S0  1  0.49994924  0.49992063  0.00000448  1
  Zn  Zn1  1  0.00015151  0.00003171  0.50001100  1
  Cd  Cd2  1  0.50002686  0.00034629  0.00007620  1
  Cd  Cd3  1  0.00034902  0.50004112  0.50000008  1
