# generated using pymatgen
data_ZnCdS2
_symmetry_space_group_name_H-M   'P 1'
_cell_length_a   5.11134935
_cell_length_b   4.55908885
_cell_length_c   5.11106446
_cell_angle_alpha   89.99996049
_cell_angle_beta   90.00223128
_cell_angle_gamma   90.00072437
_symmetry_Int_Tables_number   1
_chemical_formula_structural   ZnCdS2
_chemical_formula_sum   'Zn1 Cd1 S2'
_cell_volume   119.10362476
_cell_formula_units_Z   1
loop_
 _symmetry_equiv_pos_site_id
 _symmetry_equiv_pos_as_xyz
  1  'x, y, z'
loop_
 _atom_site_type_symbol
 _atom_site_label
 _atom_site_symmetry_multiplicity
 _atom_site_fract_x
 _atom_site_fract_y
 _atom_site_fract_z
 _atom_site_occupancy
  S  S0  1  0.50002826  0.49999982  0.00093081  1
  Zn  Zn1  1  0.00027092  0.00018013  0.49998032  1
  Cd  Cd2  1  0.49999324  0.00000069  0.00027555  1
  S  S3  1  0.00017400  0.50000095  0.50017504  1
