# generated using pymatgen
data_ZnCd2S
_symmetry_space_group_name_H-M   'P 1'
_cell_length_a   3.91810048
_cell_length_b   5.63855137
_cell_length_c   3.91805714
_cell_angle_alpha   90.00005244
_cell_angle_beta   90.00045127
_cell_angle_gamma   90.00005206
_symmetry_Int_Tables_number   1
_chemical_formula_structural   ZnCd2S
_chemical_formula_sum   'Zn1 Cd2 S1'
_cell_volume   86.55932796
_cell_formula_units_Z   1
loop_
 _symmetry_equiv_pos_site_id
 _symmetry_equiv_pos_as_xyz
  1  'x, y, z'
loop_
 _atom_site_type_symbol
 _atom_site_label
 _atom_site_symmetry_multiplicity
 _atom_site_fract_x
 _atom_site_fract_y
 _atom_site_fract_z
 _atom_site_occupancy
  S  S0  1  0.49999170  0.49992936  0.00015058  1
  Zn  Zn1  1  0.00000616  0.00002210  0.50001680  1
  Cd  Cd2  1  0.50000148  0.00029705  0.00002375  1
  Cd  Cd3  1  0.00004480  0.50002937  0.49996651  1
