# generated using pymatgen
data_ZnCd2S
_symmetry_space_group_name_H-M   'P 1'
_cell_length_a   3.91807250
_cell_length_b   5.63866664
_cell_length_c   3.91801634
_cell_angle_alpha   90.00004391
_cell_angle_beta   90.00092589
_cell_angle_gamma   90.00004782
_symmetry_Int_Tables_number   1
_chemical_formula_structural   ZnCd2S
_chemical_formula_sum   'Zn1 Cd2 S1'
_cell_volume   86.55957773
_cell_formula_units_Z   1
loop_
 _symmetry_equiv_pos_site_id
 _symmetry_equiv_pos_as_xyz
  1  'x, y, z'
loop_
 _atom_site_type_symbol
 _atom_site_label
 _atom_site_symmetry_multiplicity
 _atom_site_fract_x
 _atom_site_fract_y
 _atom_site_fract_z
 _atom_site_occupancy
  S  S0  1  0.50000003  0.50000266  0.00002057  1
  Zn  Zn1  1  0.00000678  0.00000655  0.50000484  1
  Cd  Cd2  1  0.50000113  0.00000316  0.00002077  1
  Cd  Cd3  1  0.00000462  0.50000764  0.49999569  1
