# generated using pymatgen
data_ZnCd2S
_symmetry_space_group_name_H-M   'P 1'
_cell_length_a   3.91809607
_cell_length_b   5.63849140
_cell_length_c   3.91808519
_cell_angle_alpha   90.00014458
_cell_angle_beta   89.99783138
_cell_angle_gamma   90.00011884
_symmetry_Int_Tables_number   1
_chemical_formula_structural   ZnCd2S
_chemical_formula_sum   'Zn1 Cd2 S1'
_cell_volume   86.55892955
_cell_formula_units_Z   1
loop_
 _symmetry_equiv_pos_site_id
 _symmetry_equiv_pos_as_xyz
  1  'x, y, z'
loop_
 _atom_site_type_symbol
 _atom_site_label
 _atom_site_symmetry_multiplicity
 _atom_site_fract_x
 _atom_site_fract_y
 _atom_site_fract_z
 _atom_site_occupancy
  S  S0  1  0.49999945  0.50000076  0.00000183  1
  Zn  Zn1  1  0.00000856  0.00000212  0.50000028  1
  Cd  Cd2  1  0.50000133  0.00000120  0.00000125  1
  Cd  Cd3  1  0.00000800  0.50000254  0.49999954  1
