# generated using pymatgen
data_ZnCdSeS
_symmetry_space_group_name_H-M   'P 1'
_cell_length_a   4.66519280
_cell_length_b   4.91915894
_cell_length_c   4.66530262
_cell_angle_alpha   90.00001466
_cell_angle_beta   90.00023236
_cell_angle_gamma   90.00021702
_symmetry_Int_Tables_number   1
_chemical_formula_structural   ZnCdSeS
_chemical_formula_sum   'Zn1 Cd1 Se1 S1'
_cell_volume   107.06321276
_cell_formula_units_Z   1
loop_
 _symmetry_equiv_pos_site_id
 _symmetry_equiv_pos_as_xyz
  1  'x, y, z'
loop_
 _atom_site_type_symbol
 _atom_site_label
 _atom_site_symmetry_multiplicity
 _atom_site_fract_x
 _atom_site_fract_y
 _atom_site_fract_z
 _atom_site_occupancy
  S  S0  1  0.50002175  0.50005171  0.00115769  1
  Zn  Zn1  1  0.00058726  0.00004285  0.49993445  1
  Cd  Cd2  1  0.50016393  0.00005262  0.00087883  1
  Se  Se3  1  0.00005133  0.50004955  0.50115755  1
