# generated using pymatgen
data_ZnCdGaS
_symmetry_space_group_name_H-M   'P 1'
_cell_length_a   4.22736876
_cell_length_b   5.07651344
_cell_length_c   4.22737423
_cell_angle_alpha   89.99985349
_cell_angle_beta   89.99755332
_cell_angle_gamma   90.00021785
_symmetry_Int_Tables_number   1
_chemical_formula_structural   ZnCdGaS
_chemical_formula_sum   'Zn1 Cd1 Ga1 S1'
_cell_volume   90.72069509
_cell_formula_units_Z   1
loop_
 _symmetry_equiv_pos_site_id
 _symmetry_equiv_pos_as_xyz
  1  'x, y, z'
loop_
 _atom_site_type_symbol
 _atom_site_label
 _atom_site_symmetry_multiplicity
 _atom_site_fract_x
 _atom_site_fract_y
 _atom_site_fract_z
 _atom_site_occupancy
  S  S0  1  0.50000021  0.50003113  0.00003829  1
  Zn  Zn1  1  0.00019905  0.00009184  0.50000194  1
  Cd  Cd2  1  0.49999826  0.00004625  0.00003709  1
  Ga  Ga3  1  0.00021731  0.50002160  0.49999758  1
