# generated using pymatgen
data_ZnCd2S
_symmetry_space_group_name_H-M   'P 1'
_cell_length_a   3.91814275
_cell_length_b   5.63846784
_cell_length_c   3.91806913
_cell_angle_alpha   90.00018617
_cell_angle_beta   90.00016012
_cell_angle_gamma   90.00017597
_symmetry_Int_Tables_number   1
_chemical_formula_structural   ZnCd2S
_chemical_formula_sum   'Zn1 Cd2 S1'
_cell_volume   86.55924436
_cell_formula_units_Z   1
loop_
 _symmetry_equiv_pos_site_id
 _symmetry_equiv_pos_as_xyz
  1  'x, y, z'
loop_
 _atom_site_type_symbol
 _atom_site_label
 _atom_site_symmetry_multiplicity
 _atom_site_fract_x
 _atom_site_fract_y
 _atom_site_fract_z
 _atom_site_occupancy
  S  S0  1  0.49993498  0.50011217  0.00045012  1
  Zn  Zn1  1  0.00047970  0.00045831  0.50005564  1
  Cd  Cd2  1  0.50007186  0.00058066  0.00012913  1
  Cd  Cd3  1  0.00064742  0.50050348  0.49990562  1
