# generated using pymatgen
data_ZnCdGaS
_symmetry_space_group_name_H-M   'P 1'
_cell_length_a   3.64330510
_cell_length_b   6.27159954
_cell_length_c   3.64330887
_cell_angle_alpha   89.99931220
_cell_angle_beta   90.00002043
_cell_angle_gamma   90.00077999
_symmetry_Int_Tables_number   1
_chemical_formula_structural   ZnCdGaS
_chemical_formula_sum   'Zn1 Cd1 Ga1 S1'
_cell_volume   83.24724163
_cell_formula_units_Z   1
loop_
 _symmetry_equiv_pos_site_id
 _symmetry_equiv_pos_as_xyz
  1  'x, y, z'
loop_
 _atom_site_type_symbol
 _atom_site_label
 _atom_site_symmetry_multiplicity
 _atom_site_fract_x
 _atom_site_fract_y
 _atom_site_fract_z
 _atom_site_occupancy
  Ga  Ga0  1  0.50001416  0.50009123  0.00033018  1
  Zn  Zn1  1  0.00008748  -0.00001228  0.49973795  1
  S  S2  1  0.50011389  -0.00003187  -0.00026782  1
  Cd  Cd3  1  0.00001464  0.49995620  0.50027993  1
