# generated using pymatgen
data_ZnCdSeS
_symmetry_space_group_name_H-M   'P 1'
_cell_length_a   4.66526449
_cell_length_b   4.91916902
_cell_length_c   4.66524258
_cell_angle_alpha   89.99988077
_cell_angle_beta   90.00009818
_cell_angle_gamma   90.00007296
_symmetry_Int_Tables_number   1
_chemical_formula_structural   ZnCdSeS
_chemical_formula_sum   'Zn1 Cd1 Se1 S1'
_cell_volume   107.06369954
_cell_formula_units_Z   1
loop_
 _symmetry_equiv_pos_site_id
 _symmetry_equiv_pos_as_xyz
  1  'x, y, z'
loop_
 _atom_site_type_symbol
 _atom_site_label
 _atom_site_symmetry_multiplicity
 _atom_site_fract_x
 _atom_site_fract_y
 _atom_site_fract_z
 _atom_site_occupancy
  S  S0  1  0.50022356  0.50000201  -0.00000106  1
  Zn  Zn1  1  0.00008882  0.00033781  0.49999954  1
  Cd  Cd2  1  0.49991442  0.00000352  0.00002841  1
  Se  Se3  1  0.00079927  0.50022339  0.49999815  1
