# generated using pymatgen
data_ZnCdSeS
_symmetry_space_group_name_H-M   'P 1'
_cell_length_a   4.66491922
_cell_length_b   4.91931127
_cell_length_c   4.66542020
_cell_angle_alpha   89.98481194
_cell_angle_beta   89.98627275
_cell_angle_gamma   90.00872606
_symmetry_Int_Tables_number   1
_chemical_formula_structural   ZnCdSeS
_chemical_formula_sum   'Zn1 Cd1 Se1 S1'
_cell_volume   107.06293964
_cell_formula_units_Z   1
loop_
 _symmetry_equiv_pos_site_id
 _symmetry_equiv_pos_as_xyz
  1  'x, y, z'
loop_
 _atom_site_type_symbol
 _atom_site_label
 _atom_site_symmetry_multiplicity
 _atom_site_fract_x
 _atom_site_fract_y
 _atom_site_fract_z
 _atom_site_occupancy
  S  S0  1  0.50021004  0.50005396  0.00008519  1
  Zn  Zn1  1  0.00039657  -0.00005192  0.50003790  1
  Cd  Cd2  1  0.50040491  0.00001627  -0.00009441  1
  Se  Se3  1  -0.00017557  0.50010138  0.50012813  1
