# generated using pymatgen
data_ZnCd2S
_symmetry_space_group_name_H-M   'P 1'
_cell_length_a   3.91805842
_cell_length_b   5.63860945
_cell_length_c   3.91805978
_cell_angle_alpha   90.00005436
_cell_angle_beta   90.00023056
_cell_angle_gamma   90.00000312
_symmetry_Int_Tables_number   1
_chemical_formula_structural   ZnCd2S
_chemical_formula_sum   'Zn1 Cd2 S1'
_cell_volume   86.55934879
_cell_formula_units_Z   1
loop_
 _symmetry_equiv_pos_site_id
 _symmetry_equiv_pos_as_xyz
  1  'x, y, z'
loop_
 _atom_site_type_symbol
 _atom_site_label
 _atom_site_symmetry_multiplicity
 _atom_site_fract_x
 _atom_site_fract_y
 _atom_site_fract_z
 _atom_site_occupancy
  S  S0  1  0.49998586  0.50000870  0.00001151  1
  Zn  Zn1  1  0.00003492  0.00003116  0.50001238  1
  Cd  Cd2  1  0.50000673  0.00003287  0.00007697  1
  Cd  Cd3  1  0.00009139  0.50003545  0.49999843  1
