# generated using pymatgen
data_ZnCdSO
_symmetry_space_group_name_H-M   'P 1'
_cell_length_a   5.11190451
_cell_length_b   4.10385143
_cell_length_c   4.97045353
_cell_angle_alpha   90.28317357
_cell_angle_beta   91.07901006
_cell_angle_gamma   91.99138458
_symmetry_Int_Tables_number   1
_chemical_formula_structural   ZnCdSO
_chemical_formula_sum   'Zn1 Cd1 S1 O1'
_cell_volume   104.18955541
_cell_formula_units_Z   1
loop_
 _symmetry_equiv_pos_site_id
 _symmetry_equiv_pos_as_xyz
  1  'x, y, z'
loop_
 _atom_site_type_symbol
 _atom_site_label
 _atom_site_symmetry_multiplicity
 _atom_site_fract_x
 _atom_site_fract_y
 _atom_site_fract_z
 _atom_site_occupancy
  O  O0  1  0.49997423  0.50006859  0.00003626  1
  Zn  Zn1  1  0.00011632  -0.00000052  0.50000565  1
  Cd  Cd2  1  0.50001069  0.00006872  0.00004701  1
  S  S3  1  -0.00004196  0.49999062  0.50004429  1
