# generated using pymatgen
data_ZnCdS2
_symmetry_space_group_name_H-M   'P 1'
_cell_length_a   5.11114292
_cell_length_b   4.55908427
_cell_length_c   5.11115220
_cell_angle_alpha   90.00009598
_cell_angle_beta   90.00018956
_cell_angle_gamma   89.99941044
_symmetry_Int_Tables_number   1
_chemical_formula_structural   ZnCdS2
_chemical_formula_sum   'Zn1 Cd1 S2'
_cell_volume   119.10073987
_cell_formula_units_Z   1
loop_
 _symmetry_equiv_pos_site_id
 _symmetry_equiv_pos_as_xyz
  1  'x, y, z'
loop_
 _atom_site_type_symbol
 _atom_site_label
 _atom_site_symmetry_multiplicity
 _atom_site_fract_x
 _atom_site_fract_y
 _atom_site_fract_z
 _atom_site_occupancy
  S  S0  1  0.50000527  0.50000919  0.00000088  1
  Zn  Zn1  1  0.00002479  0.00000279  0.50000090  1
  Cd  Cd2  1  0.49999802  0.00000920  0.00002847  1
  S  S3  1  0.00002256  0.49999904  0.49999867  1
