# generated using pymatgen
data_ZnCd2S
_symmetry_space_group_name_H-M   'P 1'
_cell_length_a   3.91802484
_cell_length_b   5.63861681
_cell_length_c   3.91808564
_cell_angle_alpha   89.99990193
_cell_angle_beta   89.99942822
_cell_angle_gamma   89.99994722
_symmetry_Int_Tables_number   1
_chemical_formula_structural   ZnCd2S
_chemical_formula_sum   'Zn1 Cd2 S1'
_cell_volume   86.55929130
_cell_formula_units_Z   1
loop_
 _symmetry_equiv_pos_site_id
 _symmetry_equiv_pos_as_xyz
  1  'x, y, z'
loop_
 _atom_site_type_symbol
 _atom_site_label
 _atom_site_symmetry_multiplicity
 _atom_site_fract_x
 _atom_site_fract_y
 _atom_site_fract_z
 _atom_site_occupancy
  S  S0  1  0.50000192  0.49999655  0.00010886  1
  Zn  Zn1  1  0.00003178  0.00004762  0.50001576  1
  Cd  Cd2  1  0.50000481  0.00011374  0.00004268  1
  Cd  Cd3  1  0.00001100  0.50005468  0.49997605  1
