# generated using pymatgen
data_ZnCd2S
_symmetry_space_group_name_H-M   'P 1'
_cell_length_a   3.91810761
_cell_length_b   5.63854245
_cell_length_c   3.91805985
_cell_angle_alpha   89.99989416
_cell_angle_beta   90.00094063
_cell_angle_gamma   89.99996236
_symmetry_Int_Tables_number   1
_chemical_formula_structural   ZnCd2S
_chemical_formula_sum   'Zn1 Cd2 S1'
_cell_volume   86.55940841
_cell_formula_units_Z   1
loop_
 _symmetry_equiv_pos_site_id
 _symmetry_equiv_pos_as_xyz
  1  'x, y, z'
loop_
 _atom_site_type_symbol
 _atom_site_label
 _atom_site_symmetry_multiplicity
 _atom_site_fract_x
 _atom_site_fract_y
 _atom_site_fract_z
 _atom_site_occupancy
  S  S0  1  0.50002713  0.49989179  0.00005884  1
  Zn  Zn1  1  0.00029350  0.00001577  0.50006109  1
  Cd  Cd2  1  0.50004304  0.00042297  0.00040165  1
  Cd  Cd3  1  0.00006056  0.50002450  0.49999259  1
