# generated using pymatgen
data_ZnCdSeS
_symmetry_space_group_name_H-M   'P 1'
_cell_length_a   4.33465957
_cell_length_b   5.21708230
_cell_length_c   4.33467480
_cell_angle_alpha   90.00014060
_cell_angle_beta   107.38377061
_cell_angle_gamma   89.99989295
_symmetry_Int_Tables_number   1
_chemical_formula_structural   ZnCdSeS
_chemical_formula_sum   'Zn1 Cd1 Se1 S1'
_cell_volume   93.54821434
_cell_formula_units_Z   1
loop_
 _symmetry_equiv_pos_site_id
 _symmetry_equiv_pos_as_xyz
  1  'x, y, z'
loop_
 _atom_site_type_symbol
 _atom_site_label
 _atom_site_symmetry_multiplicity
 _atom_site_fract_x
 _atom_site_fract_y
 _atom_site_fract_z
 _atom_site_occupancy
  Cd  Cd0  1  0.49999356  0.50006278  0.00006669  1
  Zn  Zn1  1  0.00003847  0.00014059  0.49994562  1
  Se  Se2  1  0.49999928  0.00002266  0.00014624  1
  S  S3  1  0.00010233  0.50000220  0.49999110  1
