# generated using pymatgen
data_ZnCd2S
_symmetry_space_group_name_H-M   'P 1'
_cell_length_a   3.91801859
_cell_length_b   5.63862514
_cell_length_c   3.91810153
_cell_angle_alpha   90.00006747
_cell_angle_beta   90.00089131
_cell_angle_gamma   90.00011511
_symmetry_Int_Tables_number   1
_chemical_formula_structural   ZnCd2S
_chemical_formula_sum   'Zn1 Cd2 S1'
_cell_volume   86.55963192
_cell_formula_units_Z   1
loop_
 _symmetry_equiv_pos_site_id
 _symmetry_equiv_pos_as_xyz
  1  'x, y, z'
loop_
 _atom_site_type_symbol
 _atom_site_label
 _atom_site_symmetry_multiplicity
 _atom_site_fract_x
 _atom_site_fract_y
 _atom_site_fract_z
 _atom_site_occupancy
  S  S0  1  0.49999927  0.49995849  0.00000143  1
  Zn  Zn1  1  0.00001515  0.00001402  0.50000031  1
  Cd  Cd2  1  0.50000240  0.00017244  0.00000155  1
  Cd  Cd3  1  0.00001385  0.50001874  0.49999966  1
