# generated using pymatgen
data_ZnCdSeS
_symmetry_space_group_name_H-M   'P 1'
_cell_length_a   4.66523661
_cell_length_b   4.91917170
_cell_length_c   4.66523413
_cell_angle_alpha   90.00035027
_cell_angle_beta   89.99985646
_cell_angle_gamma   90.00030378
_symmetry_Int_Tables_number   1
_chemical_formula_structural   ZnCdSeS
_chemical_formula_sum   'Zn1 Cd1 Se1 S1'
_cell_volume   107.06292414
_cell_formula_units_Z   1
loop_
 _symmetry_equiv_pos_site_id
 _symmetry_equiv_pos_as_xyz
  1  'x, y, z'
loop_
 _atom_site_type_symbol
 _atom_site_label
 _atom_site_symmetry_multiplicity
 _atom_site_fract_x
 _atom_site_fract_y
 _atom_site_fract_z
 _atom_site_occupancy
  S  S0  1  0.50007060  0.50000710  0.00002440  1
  Zn  Zn1  1  0.00012915  0.00019622  0.49999158  1
  Cd  Cd2  1  0.49996969  0.00000781  0.00037560  1
  Se  Se3  1  0.00023513  0.50013877  0.49998309  1
