# generated using pymatgen
data_ZnCdS2
_symmetry_space_group_name_H-M   'P 1'
_cell_length_a   5.11114116
_cell_length_b   4.55908264
_cell_length_c   5.11114153
_cell_angle_alpha   89.99995077
_cell_angle_beta   90.00006734
_cell_angle_gamma   89.99984756
_symmetry_Int_Tables_number   1
_chemical_formula_structural   ZnCdS2
_chemical_formula_sum   'Zn1 Cd1 S2'
_cell_volume   119.10040731
_cell_formula_units_Z   1
loop_
 _symmetry_equiv_pos_site_id
 _symmetry_equiv_pos_as_xyz
  1  'x, y, z'
loop_
 _atom_site_type_symbol
 _atom_site_label
 _atom_site_symmetry_multiplicity
 _atom_site_fract_x
 _atom_site_fract_y
 _atom_site_fract_z
 _atom_site_occupancy
  S  S0  1  0.49999883  0.50000045  -0.00001597  1
  Zn  Zn1  1  0.00004810  0.00002496  0.50000329  1
  Cd  Cd2  1  0.50000178  0.00000057  0.00009814  1
  S  S3  1  0.00001146  0.50000028  0.49999263  1
