# generated using pymatgen
data_ZnCdS2
_symmetry_space_group_name_H-M   'P 1'
_cell_length_a   5.11115968
_cell_length_b   4.55908713
_cell_length_c   5.11115472
_cell_angle_alpha   89.99984819
_cell_angle_beta   90.00020004
_cell_angle_gamma   89.99985635
_symmetry_Int_Tables_number   1
_chemical_formula_structural   ZnCdS2
_chemical_formula_sum   'Zn1 Cd1 S2'
_cell_volume   119.10126362
_cell_formula_units_Z   1
loop_
 _symmetry_equiv_pos_site_id
 _symmetry_equiv_pos_as_xyz
  1  'x, y, z'
loop_
 _atom_site_type_symbol
 _atom_site_label
 _atom_site_symmetry_multiplicity
 _atom_site_fract_x
 _atom_site_fract_y
 _atom_site_fract_z
 _atom_site_occupancy
  S  S0  1  0.50001464  0.50002286  0.00003398  1
  Zn  Zn1  1  0.00002715  0.00013246  0.49999949  1
  Cd  Cd2  1  0.49999350  0.00002353  0.00001763  1
  S  S3  1  0.00005151  0.49999871  0.50000600  1
