# generated using pymatgen
data_ZnCdGaS
_symmetry_space_group_name_H-M   'P 1'
_cell_length_a   4.22746540
_cell_length_b   5.07654085
_cell_length_c   4.22728665
_cell_angle_alpha   89.99995030
_cell_angle_beta   89.99794616
_cell_angle_gamma   90.00030085
_symmetry_Int_Tables_number   1
_chemical_formula_structural   ZnCdGaS
_chemical_formula_sum   'Zn1 Cd1 Ga1 S1'
_cell_volume   90.72137942
_cell_formula_units_Z   1
loop_
 _symmetry_equiv_pos_site_id
 _symmetry_equiv_pos_as_xyz
  1  'x, y, z'
loop_
 _atom_site_type_symbol
 _atom_site_label
 _atom_site_symmetry_multiplicity
 _atom_site_fract_x
 _atom_site_fract_y
 _atom_site_fract_z
 _atom_site_occupancy
  S  S0  1  0.49995963  0.50041622  0.00003831  1
  Zn  Zn1  1  0.00005416  0.00021316  0.50000214  1
  Cd  Cd2  1  0.49998631  0.00076067  0.00007504  1
  Ga  Ga3  1  0.00100870  0.50002408  0.49999702  1
