# generated using pymatgen
data_ZnCdSeO
_symmetry_space_group_name_H-M   'P 1'
_cell_length_a   4.94657232
_cell_length_b   4.35404630
_cell_length_c   4.94667634
_cell_angle_alpha   89.99989533
_cell_angle_beta   90.00001585
_cell_angle_gamma   90.00003876
_symmetry_Int_Tables_number   1
_chemical_formula_structural   ZnCdSeO
_chemical_formula_sum   'Zn1 Cd1 Se1 O1'
_cell_volume   106.53956052
_cell_formula_units_Z   1
loop_
 _symmetry_equiv_pos_site_id
 _symmetry_equiv_pos_as_xyz
  1  'x, y, z'
loop_
 _atom_site_type_symbol
 _atom_site_label
 _atom_site_symmetry_multiplicity
 _atom_site_fract_x
 _atom_site_fract_y
 _atom_site_fract_z
 _atom_site_occupancy
  O  O0  1  0.50000021  0.50013179  0.00013380  1
  Zn  Zn1  1  0.00000504  0.00004224  0.49997972  1
  Cd  Cd2  1  0.49999997  0.00013950  0.00003750  1
  Se  Se3  1  0.00000328  0.50004195  0.50003267  1
