# generated using pymatgen
data_ZnCd2S
_symmetry_space_group_name_H-M   'P 1'
_cell_length_a   3.76089169
_cell_length_b   7.85003587
_cell_length_c   3.75817647
_cell_angle_alpha   73.59352083
_cell_angle_beta   89.39689521
_cell_angle_gamma   72.09710109
_symmetry_Int_Tables_number   1
_chemical_formula_structural   ZnCd2S
_chemical_formula_sum   'Zn1 Cd2 S1'
_cell_volume   100.92720900
_cell_formula_units_Z   1
loop_
 _symmetry_equiv_pos_site_id
 _symmetry_equiv_pos_as_xyz
  1  'x, y, z'
loop_
 _atom_site_type_symbol
 _atom_site_label
 _atom_site_symmetry_multiplicity
 _atom_site_fract_x
 _atom_site_fract_y
 _atom_site_fract_z
 _atom_site_occupancy
  Cd  Cd0  1  0.49996467  0.50000406  -0.00000400  1
  Zn  Zn1  1  0.00000656  0.00001999  0.49998423  1
  Cd  Cd2  1  0.50001214  -0.00000278  -0.00000277  1
  S  S3  1  0.00002067  0.49998288  0.50005208  1
