# generated using pymatgen
data_ZnCdS2
_symmetry_space_group_name_H-M   'P 1'
_cell_length_a   5.11107182
_cell_length_b   4.55907900
_cell_length_c   5.11124102
_cell_angle_alpha   90.00005061
_cell_angle_beta   90.00019001
_cell_angle_gamma   89.99974522
_symmetry_Int_Tables_number   1
_chemical_formula_structural   ZnCdS2
_chemical_formula_sum   'Zn1 Cd1 S2'
_cell_volume   119.10101475
_cell_formula_units_Z   1
loop_
 _symmetry_equiv_pos_site_id
 _symmetry_equiv_pos_as_xyz
  1  'x, y, z'
loop_
 _atom_site_type_symbol
 _atom_site_label
 _atom_site_symmetry_multiplicity
 _atom_site_fract_x
 _atom_site_fract_y
 _atom_site_fract_z
 _atom_site_occupancy
  S  S0  1  0.50000005  0.50000311  -0.00011516  1
  Zn  Zn1  1  0.00005605  0.00003284  0.50002408  1
  Cd  Cd2  1  0.50000140  0.00000326  0.00071146  1
  S  S3  1  0.00001800  0.50000019  0.49994682  1
