# generated using pymatgen
data_ZnCd2S
_symmetry_space_group_name_H-M   'P 1'
_cell_length_a   3.91807568
_cell_length_b   5.63863429
_cell_length_c   3.91805429
_cell_angle_alpha   90.00000736
_cell_angle_beta   90.00150355
_cell_angle_gamma   89.99981670
_symmetry_Int_Tables_number   1
_chemical_formula_structural   ZnCd2S
_chemical_formula_sum   'Zn1 Cd2 S1'
_cell_volume   86.55998995
_cell_formula_units_Z   1
loop_
 _symmetry_equiv_pos_site_id
 _symmetry_equiv_pos_as_xyz
  1  'x, y, z'
loop_
 _atom_site_type_symbol
 _atom_site_label
 _atom_site_symmetry_multiplicity
 _atom_site_fract_x
 _atom_site_fract_y
 _atom_site_fract_z
 _atom_site_occupancy
  S  S0  1  0.50024145  0.50015843  0.00024537  1
  Zn  Zn1  1  0.00055841  0.00017556  0.50099487  1
  Cd  Cd2  1  0.50078117  0.00042145  0.00107687  1
  Cd  Cd3  1  0.00053281  0.50037969  0.49994456  1
