# generated using pymatgen
data_ZnCd2S
_symmetry_space_group_name_H-M   'P 1'
_cell_length_a   3.91807479
_cell_length_b   5.63862205
_cell_length_c   3.91804289
_cell_angle_alpha   89.99988046
_cell_angle_beta   89.99991424
_cell_angle_gamma   90.00028410
_symmetry_Int_Tables_number   1
_chemical_formula_structural   ZnCd2S
_chemical_formula_sum   'Zn1 Cd2 S1'
_cell_volume   86.55953078
_cell_formula_units_Z   1
loop_
 _symmetry_equiv_pos_site_id
 _symmetry_equiv_pos_as_xyz
  1  'x, y, z'
loop_
 _atom_site_type_symbol
 _atom_site_label
 _atom_site_symmetry_multiplicity
 _atom_site_fract_x
 _atom_site_fract_y
 _atom_site_fract_z
 _atom_site_occupancy
  S  S0  1  0.50000563  0.50000307  -0.00000010  1
  Zn  Zn1  1  0.00004942  0.00001366  0.50000301  1
  Cd  Cd2  1  0.50000731  0.00001651  0.00002159  1
  Cd  Cd3  1  0.00000494  0.50001533  0.50000034  1
