# generated using pymatgen
data_ZnCd2S
_symmetry_space_group_name_H-M   'P 1'
_cell_length_a   3.77531486
_cell_length_b   8.15659438
_cell_length_c   3.76050464
_cell_angle_alpha   117.46442397
_cell_angle_beta   89.99989129
_cell_angle_gamma   89.99662088
_symmetry_Int_Tables_number   1
_chemical_formula_structural   ZnCd2S
_chemical_formula_sum   'Zn1 Cd2 S1'
_cell_volume   102.74894373
_cell_formula_units_Z   1
loop_
 _symmetry_equiv_pos_site_id
 _symmetry_equiv_pos_as_xyz
  1  'x, y, z'
loop_
 _atom_site_type_symbol
 _atom_site_label
 _atom_site_symmetry_multiplicity
 _atom_site_fract_x
 _atom_site_fract_y
 _atom_site_fract_z
 _atom_site_occupancy
  Cd  Cd0  1  0.50024997  0.50098007  0.00652357  1
  Zn  Zn1  1  0.00059933  0.00244027  0.50423736  1
  Cd  Cd2  1  0.50058456  -0.00463387  -0.00288291  1
  S  S3  1  0.00026048  0.50188246  0.50722241  1
