# generated using pymatgen
data_ZnCd2S
_symmetry_space_group_name_H-M   'P 1'
_cell_length_a   3.94652976
_cell_length_b   5.42796014
_cell_length_c   3.94647798
_cell_angle_alpha   90.00007884
_cell_angle_beta   89.99904483
_cell_angle_gamma   90.00001839
_symmetry_Int_Tables_number   1
_chemical_formula_structural   ZnCd2S
_chemical_formula_sum   'Zn1 Cd2 S1'
_cell_volume   84.53989725
_cell_formula_units_Z   1
loop_
 _symmetry_equiv_pos_site_id
 _symmetry_equiv_pos_as_xyz
  1  'x, y, z'
loop_
 _atom_site_type_symbol
 _atom_site_label
 _atom_site_symmetry_multiplicity
 _atom_site_fract_x
 _atom_site_fract_y
 _atom_site_fract_z
 _atom_site_occupancy
  Cd  Cd0  1  0.50002126  0.50000257  0.00000819  1
  Zn  Zn1  1  0.00011050  0.00000606  0.49992055  1
  S  S2  1  0.49994663  0.00000235  0.00014769  1
  Cd  Cd3  1  0.00004799  0.50000568  0.50000765  1
