# generated using pymatgen
data_ZnCd2S
_symmetry_space_group_name_H-M   'P 1'
_cell_length_a   3.91803677
_cell_length_b   5.63856470
_cell_length_c   3.91811050
_cell_angle_alpha   90.00002257
_cell_angle_beta   90.00119508
_cell_angle_gamma   90.00000359
_symmetry_Int_Tables_number   1
_chemical_formula_structural   ZnCd2S
_chemical_formula_sum   'Zn1 Cd2 S1'
_cell_volume   86.55930394
_cell_formula_units_Z   1
loop_
 _symmetry_equiv_pos_site_id
 _symmetry_equiv_pos_as_xyz
  1  'x, y, z'
loop_
 _atom_site_type_symbol
 _atom_site_label
 _atom_site_symmetry_multiplicity
 _atom_site_fract_x
 _atom_site_fract_y
 _atom_site_fract_z
 _atom_site_occupancy
  S  S0  1  0.49996409  0.50002516  0.00007760  1
  Zn  Zn1  1  0.00007899  0.00006205  0.50001169  1
  Cd  Cd2  1  0.50001448  0.00004068  0.00003430  1
  Cd  Cd3  1  0.00022782  0.50006889  0.49998280  1
