# generated using pymatgen
data_ZnCdS2
_symmetry_space_group_name_H-M   'P 1'
_cell_length_a   4.17725754
_cell_length_b   5.06070531
_cell_length_c   4.17724594
_cell_angle_alpha   89.99973382
_cell_angle_beta   105.07654913
_cell_angle_gamma   90.00017811
_symmetry_Int_Tables_number   1
_chemical_formula_structural   ZnCdS2
_chemical_formula_sum   'Zn1 Cd1 S2'
_cell_volume   85.26685316
_cell_formula_units_Z   1
loop_
 _symmetry_equiv_pos_site_id
 _symmetry_equiv_pos_as_xyz
  1  'x, y, z'
loop_
 _atom_site_type_symbol
 _atom_site_label
 _atom_site_symmetry_multiplicity
 _atom_site_fract_x
 _atom_site_fract_y
 _atom_site_fract_z
 _atom_site_occupancy
  Cd  Cd0  1  0.49999412  0.50000744  0.00004456  1
  Zn  Zn1  1  0.00004185  0.00000583  0.49999701  1
  S  S2  1  0.49999035  0.00000727  0.00002871  1
  S  S3  1  0.00002034  0.50000556  0.50000721  1
