# generated using pymatgen
data_ZnCd2S
_symmetry_space_group_name_H-M   'P 1'
_cell_length_a   3.91807565
_cell_length_b   5.63851627
_cell_length_c   3.91809649
_cell_angle_alpha   90.00003154
_cell_angle_beta   90.00032119
_cell_angle_gamma   90.00004915
_symmetry_Int_Tables_number   1
_chemical_formula_structural   ZnCd2S
_chemical_formula_sum   'Zn1 Cd2 S1'
_cell_volume   86.55910990
_cell_formula_units_Z   1
loop_
 _symmetry_equiv_pos_site_id
 _symmetry_equiv_pos_as_xyz
  1  'x, y, z'
loop_
 _atom_site_type_symbol
 _atom_site_label
 _atom_site_symmetry_multiplicity
 _atom_site_fract_x
 _atom_site_fract_y
 _atom_site_fract_z
 _atom_site_occupancy
  S  S0  1  0.49994536  0.49997103  0.00010765  1
  Zn  Zn1  1  0.00001082  0.00007467  0.50001697  1
  Cd  Cd2  1  0.50000513  0.00026321  0.00005292  1
  Cd  Cd3  1  0.00027616  0.50008645  0.49997657  1
