# generated using pymatgen
data_ZnCd2S
_symmetry_space_group_name_H-M   'P 1'
_cell_length_a   3.94651479
_cell_length_b   5.42794597
_cell_length_c   3.94652285
_cell_angle_alpha   90.00004601
_cell_angle_beta   90.00085406
_cell_angle_gamma   89.99996783
_symmetry_Int_Tables_number   1
_chemical_formula_structural   ZnCd2S
_chemical_formula_sum   'Zn1 Cd2 S1'
_cell_volume   84.54031704
_cell_formula_units_Z   1
loop_
 _symmetry_equiv_pos_site_id
 _symmetry_equiv_pos_as_xyz
  1  'x, y, z'
loop_
 _atom_site_type_symbol
 _atom_site_label
 _atom_site_symmetry_multiplicity
 _atom_site_fract_x
 _atom_site_fract_y
 _atom_site_fract_z
 _atom_site_occupancy
  Cd  Cd0  1  0.50000023  0.50000076  0.00000108  1
  Zn  Zn1  1  0.00000887  0.00000042  0.50000019  1
  S  S2  1  0.49999609  -0.00000046  0.00000011  1
  Cd  Cd3  1  0.00000049  0.50000020  0.50000058  1
