# generated using pymatgen
data_ZnCd2S
_symmetry_space_group_name_H-M   'P 1'
_cell_length_a   3.91803941
_cell_length_b   5.63862290
_cell_length_c   3.91807612
_cell_angle_alpha   89.99995706
_cell_angle_beta   89.99986357
_cell_angle_gamma   89.99989346
_symmetry_Int_Tables_number   1
_chemical_formula_structural   ZnCd2S
_chemical_formula_sum   'Zn1 Cd2 S1'
_cell_volume   86.55949623
_cell_formula_units_Z   1
loop_
 _symmetry_equiv_pos_site_id
 _symmetry_equiv_pos_as_xyz
  1  'x, y, z'
loop_
 _atom_site_type_symbol
 _atom_site_label
 _atom_site_symmetry_multiplicity
 _atom_site_fract_x
 _atom_site_fract_y
 _atom_site_fract_z
 _atom_site_occupancy
  S  S0  1  0.50000976  0.49993855  0.00033094  1
  Zn  Zn1  1  0.00007935  0.00000721  0.50004385  1
  Cd  Cd2  1  0.50001151  0.00023476  0.00009950  1
  Cd  Cd3  1  0.00000355  0.50001222  0.49992697  1
