# generated using pymatgen
data_ZnCd2S
_symmetry_space_group_name_H-M   'P 1'
_cell_length_a   3.91801767
_cell_length_b   5.63850927
_cell_length_c   3.91815073
_cell_angle_alpha   90.00001536
_cell_angle_beta   90.00020644
_cell_angle_gamma   89.99996439
_symmetry_Int_Tables_number   1
_chemical_formula_structural   ZnCd2S
_chemical_formula_sum   'Zn1 Cd2 S1'
_cell_volume   86.55891976
_cell_formula_units_Z   1
loop_
 _symmetry_equiv_pos_site_id
 _symmetry_equiv_pos_as_xyz
  1  'x, y, z'
loop_
 _atom_site_type_symbol
 _atom_site_label
 _atom_site_symmetry_multiplicity
 _atom_site_fract_x
 _atom_site_fract_y
 _atom_site_fract_z
 _atom_site_occupancy
  S  S0  1  0.49997540  0.50000917  0.00003551  1
  Zn  Zn1  1  0.00001574  0.00001875  0.50000424  1
  Cd  Cd2  1  0.50000386  0.00000377  0.00000906  1
  Cd  Cd3  1  0.00013397  0.50002058  0.49999220  1
