# generated using pymatgen
data_ZnCd2S
_symmetry_space_group_name_H-M   'P 1'
_cell_length_a   3.91808744
_cell_length_b   5.63848458
_cell_length_c   3.91810103
_cell_angle_alpha   89.99989923
_cell_angle_beta   90.00044618
_cell_angle_gamma   89.99987847
_symmetry_Int_Tables_number   1
_chemical_formula_structural   ZnCd2S
_chemical_formula_sum   'Zn1 Cd2 S1'
_cell_volume   86.55898417
_cell_formula_units_Z   1
loop_
 _symmetry_equiv_pos_site_id
 _symmetry_equiv_pos_as_xyz
  1  'x, y, z'
loop_
 _atom_site_type_symbol
 _atom_site_label
 _atom_site_symmetry_multiplicity
 _atom_site_fract_x
 _atom_site_fract_y
 _atom_site_fract_z
 _atom_site_occupancy
  S  S0  1  0.49986737  0.50018003  0.00003063  1
  Zn  Zn1  1  0.00002829  0.00031367  0.50000298  1
  Cd  Cd2  1  0.50001335  0.00005006  0.00000111  1
  Cd  Cd3  1  0.00064621  0.50034782  0.49999271  1
