# generated using pymatgen
data_ZnCdS2
_symmetry_space_group_name_H-M   'P 1'
_cell_length_a   5.11118295
_cell_length_b   4.55908757
_cell_length_c   5.11112437
_cell_angle_alpha   90.00004523
_cell_angle_beta   90.00023257
_cell_angle_gamma   90.00039839
_symmetry_Int_Tables_number   1
_chemical_formula_structural   ZnCdS2
_chemical_formula_sum   'Zn1 Cd1 S2'
_cell_volume   119.10111003
_cell_formula_units_Z   1
loop_
 _symmetry_equiv_pos_site_id
 _symmetry_equiv_pos_as_xyz
  1  'x, y, z'
loop_
 _atom_site_type_symbol
 _atom_site_label
 _atom_site_symmetry_multiplicity
 _atom_site_fract_x
 _atom_site_fract_y
 _atom_site_fract_z
 _atom_site_occupancy
  S  S0  1  0.50000372  0.50015695  0.00021790  1
  Zn  Zn1  1  0.00002613  0.00029690  0.49999323  1
  Cd  Cd2  1  0.49999889  0.00015847  -0.00000555  1
  S  S3  1  0.00001957  0.49998825  0.50004378  1
