# generated using pymatgen
data_ZnCd2S
_symmetry_space_group_name_H-M   'P 1'
_cell_length_a   3.82977568
_cell_length_b   6.01670414
_cell_length_c   3.83404468
_cell_angle_alpha   90.00632922
_cell_angle_beta   91.00407649
_cell_angle_gamma   90.02728273
_symmetry_Int_Tables_number   1
_chemical_formula_structural   ZnCd2S
_chemical_formula_sum   'Zn1 Cd2 S1'
_cell_volume   88.33288599
_cell_formula_units_Z   1
loop_
 _symmetry_equiv_pos_site_id
 _symmetry_equiv_pos_as_xyz
  1  'x, y, z'
loop_
 _atom_site_type_symbol
 _atom_site_label
 _atom_site_symmetry_multiplicity
 _atom_site_fract_x
 _atom_site_fract_y
 _atom_site_fract_z
 _atom_site_occupancy
  Cd  Cd0  1  0.50000018  0.50002644  0.00008978  1
  Zn  Zn1  1  0.00002559  -0.00006587  0.50004641  1
  Cd  Cd2  1  0.50001112  0.00009834  0.00005749  1
  S  S3  1  0.00000875  0.50043490  0.50001829  1
