# generated using pymatgen
data_ZnCdSeS
_symmetry_space_group_name_H-M   'P 1'
_cell_length_a   4.71622271
_cell_length_b   5.14840617
_cell_length_c   4.71627587
_cell_angle_alpha   90.00063256
_cell_angle_beta   89.99995787
_cell_angle_gamma   89.99958693
_symmetry_Int_Tables_number   1
_chemical_formula_structural   ZnCdSeS
_chemical_formula_sum   'Zn1 Cd1 Se1 S1'
_cell_volume   114.51603651
_cell_formula_units_Z   1
loop_
 _symmetry_equiv_pos_site_id
 _symmetry_equiv_pos_as_xyz
  1  'x, y, z'
loop_
 _atom_site_type_symbol
 _atom_site_label
 _atom_site_symmetry_multiplicity
 _atom_site_fract_x
 _atom_site_fract_y
 _atom_site_fract_z
 _atom_site_occupancy
  Se  Se0  1  0.50000230  0.50000028  -0.00001154  1
  Zn  Zn1  1  0.00008637  0.00000911  0.49998571  1
  Cd  Cd2  1  0.49999633  0.00000038  0.00042865  1
  S  S3  1  0.00001587  0.50000738  0.49998523  1
