# generated using pymatgen
data_ZnCd2S
_symmetry_space_group_name_H-M   'P 1'
_cell_length_a   3.94653647
_cell_length_b   5.42795862
_cell_length_c   3.94648181
_cell_angle_alpha   90.00048284
_cell_angle_beta   89.99903423
_cell_angle_gamma   90.00034031
_symmetry_Int_Tables_number   1
_chemical_formula_structural   ZnCd2S
_chemical_formula_sum   'Zn1 Cd2 S1'
_cell_volume   84.54009938
_cell_formula_units_Z   1
loop_
 _symmetry_equiv_pos_site_id
 _symmetry_equiv_pos_as_xyz
  1  'x, y, z'
loop_
 _atom_site_type_symbol
 _atom_site_label
 _atom_site_symmetry_multiplicity
 _atom_site_fract_x
 _atom_site_fract_y
 _atom_site_fract_z
 _atom_site_occupancy
  Cd  Cd0  1  0.50005209  0.50000653  0.00001894  1
  Zn  Zn1  1  0.00007325  0.00001601  0.49993058  1
  S  S2  1  0.49996696  0.00000814  0.00012915  1
  Cd  Cd3  1  0.00011939  0.50001523  0.50001155  1
