# generated using pymatgen
data_ZnCdS2
_symmetry_space_group_name_H-M   'P 1'
_cell_length_a   4.17726712
_cell_length_b   5.06070498
_cell_length_c   4.17726224
_cell_angle_alpha   90.00021630
_cell_angle_beta   105.07693771
_cell_angle_gamma   89.99982151
_symmetry_Int_Tables_number   1
_chemical_formula_structural   ZnCdS2
_chemical_formula_sum   'Zn1 Cd1 S2'
_cell_volume   85.26722003
_cell_formula_units_Z   1
loop_
 _symmetry_equiv_pos_site_id
 _symmetry_equiv_pos_as_xyz
  1  'x, y, z'
loop_
 _atom_site_type_symbol
 _atom_site_label
 _atom_site_symmetry_multiplicity
 _atom_site_fract_x
 _atom_site_fract_y
 _atom_site_fract_z
 _atom_site_occupancy
  Cd  Cd0  1  0.50000220  0.50002498  0.00002605  1
  Zn  Zn1  1  0.00001781  0.00003697  0.49999933  1
  S  S2  1  0.50002791  0.00002044  -0.00000302  1
  S  S3  1  0.00005047  0.50000252  0.49997831  1
