# generated using pymatgen
data_ZnCd2S
_symmetry_space_group_name_H-M   'P 1'
_cell_length_a   3.91806475
_cell_length_b   5.63861917
_cell_length_c   3.91805178
_cell_angle_alpha   90.00000498
_cell_angle_beta   90.00034609
_cell_angle_gamma   90.00001681
_symmetry_Int_Tables_number   1
_chemical_formula_structural   ZnCd2S
_chemical_formula_sum   'Zn1 Cd2 S1'
_cell_volume   86.55946093
_cell_formula_units_Z   1
loop_
 _symmetry_equiv_pos_site_id
 _symmetry_equiv_pos_as_xyz
  1  'x, y, z'
loop_
 _atom_site_type_symbol
 _atom_site_label
 _atom_site_symmetry_multiplicity
 _atom_site_fract_x
 _atom_site_fract_y
 _atom_site_fract_z
 _atom_site_occupancy
  S  S0  1  0.50000830  0.49997150  0.00018550  1
  Zn  Zn1  1  0.00007013  0.00001515  0.50005330  1
  Cd  Cd2  1  0.50001104  0.00012409  0.00024193  1
  Cd  Cd3  1  0.00000764  0.50002003  0.49996038  1
