# generated using pymatgen
data_ZnCd2S
_symmetry_space_group_name_H-M   'P 1'
_cell_length_a   3.91812395
_cell_length_b   5.63844441
_cell_length_c   3.91808909
_cell_angle_alpha   90.00003977
_cell_angle_beta   90.00060805
_cell_angle_gamma   90.00014591
_symmetry_Int_Tables_number   1
_chemical_formula_structural   ZnCd2S
_chemical_formula_sum   'Zn1 Cd2 S1'
_cell_volume   86.55891035
_cell_formula_units_Z   1
loop_
 _symmetry_equiv_pos_site_id
 _symmetry_equiv_pos_as_xyz
  1  'x, y, z'
loop_
 _atom_site_type_symbol
 _atom_site_label
 _atom_site_symmetry_multiplicity
 _atom_site_fract_x
 _atom_site_fract_y
 _atom_site_fract_z
 _atom_site_occupancy
  S  S0  1  0.50003051  0.50010463  0.00008667  1
  Zn  Zn1  1  0.00093420  0.00029519  0.50007307  1
  Cd  Cd2  1  0.50012812  0.00024181  0.00051827  1
  Cd  Cd3  1  0.00045251  0.50032364  0.49998886  1
