# generated using pymatgen
data_ZnCd2S
_symmetry_space_group_name_H-M   'P 1'
_cell_length_a   3.91815674
_cell_length_b   5.63837444
_cell_length_c   3.91809571
_cell_angle_alpha   89.99934132
_cell_angle_beta   90.00087690
_cell_angle_gamma   89.99996611
_symmetry_Int_Tables_number   1
_chemical_formula_structural   ZnCd2S
_chemical_formula_sum   'Zn1 Cd2 S1'
_cell_volume   86.55870669
_cell_formula_units_Z   1
loop_
 _symmetry_equiv_pos_site_id
 _symmetry_equiv_pos_as_xyz
  1  'x, y, z'
loop_
 _atom_site_type_symbol
 _atom_site_label
 _atom_site_symmetry_multiplicity
 _atom_site_fract_x
 _atom_site_fract_y
 _atom_site_fract_z
 _atom_site_occupancy
  S  S0  1  0.50022900  0.49977476  0.00028766  1
  Zn  Zn1  1  0.00037895  -0.00000326  0.50199210  1
  Cd  Cd2  1  0.50063343  0.00041998  0.00196091  1
  Cd  Cd3  1  0.00035020  0.50007700  0.50000059  1
