# generated using pymatgen
data_ZnCd2S
_symmetry_space_group_name_H-M   'P 1'
_cell_length_a   3.91801923
_cell_length_b   5.63848155
_cell_length_c   3.91816894
_cell_angle_alpha   90.00016135
_cell_angle_beta   90.00025508
_cell_angle_gamma   90.00010611
_symmetry_Int_Tables_number   1
_chemical_formula_structural   ZnCd2S
_chemical_formula_sum   'Zn1 Cd2 S1'
_cell_volume   86.55893112
_cell_formula_units_Z   1
loop_
 _symmetry_equiv_pos_site_id
 _symmetry_equiv_pos_as_xyz
  1  'x, y, z'
loop_
 _atom_site_type_symbol
 _atom_site_label
 _atom_site_symmetry_multiplicity
 _atom_site_fract_x
 _atom_site_fract_y
 _atom_site_fract_z
 _atom_site_occupancy
  S  S0  1  0.49995768  0.50001173  0.00000199  1
  Zn  Zn1  1  0.00000677  0.00002206  0.50000246  1
  Cd  Cd2  1  0.50000378  0.00000043  0.00001795  1
  Cd  Cd3  1  0.00021890  0.50002429  0.49999980  1
