# generated using pymatgen
data_ZnCdS2
_symmetry_space_group_name_H-M   'P 1'
_cell_length_a   5.11119325
_cell_length_b   4.55908793
_cell_length_c   5.11115576
_cell_angle_alpha   90.00069492
_cell_angle_beta   90.00088307
_cell_angle_gamma   90.00015090
_symmetry_Int_Tables_number   1
_chemical_formula_structural   ZnCdS2
_chemical_formula_sum   'Zn1 Cd1 S2'
_cell_volume   119.10209094
_cell_formula_units_Z   1
loop_
 _symmetry_equiv_pos_site_id
 _symmetry_equiv_pos_as_xyz
  1  'x, y, z'
loop_
 _atom_site_type_symbol
 _atom_site_label
 _atom_site_symmetry_multiplicity
 _atom_site_fract_x
 _atom_site_fract_y
 _atom_site_fract_z
 _atom_site_occupancy
  S  S0  1  0.49998492  0.50084424  0.00000997  1
  Zn  Zn1  1  0.00054186  0.00005664  0.50001804  1
  Cd  Cd2  1  0.50001885  0.00084468  0.00068065  1
  S  S3  1  0.00011203  0.49993948  0.49997424  1
