# generated using pymatgen
data_ZnCdGaS
_symmetry_space_group_name_H-M   'P 1'
_cell_length_a   4.22685947
_cell_length_b   5.07650171
_cell_length_c   4.22790048
_cell_angle_alpha   89.99993200
_cell_angle_beta   90.00747188
_cell_angle_gamma   90.00061356
_symmetry_Int_Tables_number   1
_chemical_formula_structural   ZnCdGaS
_chemical_formula_sum   'Zn1 Cd1 Ga1 S1'
_cell_volume   90.72084753
_cell_formula_units_Z   1
loop_
 _symmetry_equiv_pos_site_id
 _symmetry_equiv_pos_as_xyz
  1  'x, y, z'
loop_
 _atom_site_type_symbol
 _atom_site_label
 _atom_site_symmetry_multiplicity
 _atom_site_fract_x
 _atom_site_fract_y
 _atom_site_fract_z
 _atom_site_occupancy
  S  S0  1  0.50004860  0.50002513  0.00004714  1
  Zn  Zn1  1  0.00114205  0.00018291  0.50001722  1
  Cd  Cd2  1  0.50000532  0.00002173  0.00255654  1
  Ga  Ga3  1  0.00014236  0.50004621  0.49996101  1
