# generated using pymatgen
data_ZnCd2S
_symmetry_space_group_name_H-M   'P 1'
_cell_length_a   3.91819790
_cell_length_b   5.63851044
_cell_length_c   3.91804397
_cell_angle_alpha   89.99982742
_cell_angle_beta   90.00022825
_cell_angle_gamma   89.99987564
_symmetry_Int_Tables_number   1
_chemical_formula_structural   ZnCd2S
_chemical_formula_sum   'Zn1 Cd2 S1'
_cell_volume   86.56056074
_cell_formula_units_Z   1
loop_
 _symmetry_equiv_pos_site_id
 _symmetry_equiv_pos_as_xyz
  1  'x, y, z'
loop_
 _atom_site_type_symbol
 _atom_site_label
 _atom_site_symmetry_multiplicity
 _atom_site_fract_x
 _atom_site_fract_y
 _atom_site_fract_z
 _atom_site_occupancy
  S  S0  1  0.49969198  0.50008730  0.00104772  1
  Zn  Zn1  1  0.00000940  0.00019253  0.50014612  1
  Cd  Cd2  1  0.50002132  0.00007749  0.00044328  1
  Cd  Cd3  1  0.00161484  0.50020921  0.49978762  1
