# generated using pymatgen
data_ZnCdSe2
_symmetry_space_group_name_H-M   'P 1'
_cell_length_a   4.49618953
_cell_length_b   5.28925812
_cell_length_c   4.49621043
_cell_angle_alpha   90.00031796
_cell_angle_beta   72.22282969
_cell_angle_gamma   89.99996889
_symmetry_Int_Tables_number   1
_chemical_formula_structural   ZnCdSe2
_chemical_formula_sum   'Zn1 Cd1 Se2'
_cell_volume   101.82103183
_cell_formula_units_Z   1
loop_
 _symmetry_equiv_pos_site_id
 _symmetry_equiv_pos_as_xyz
  1  'x, y, z'
loop_
 _atom_site_type_symbol
 _atom_site_label
 _atom_site_symmetry_multiplicity
 _atom_site_fract_x
 _atom_site_fract_y
 _atom_site_fract_z
 _atom_site_occupancy
  Cd  Cd0  1  0.50001322  0.50001782  -0.00009703  1
  Zn  Zn1  1  0.00035228  0.00002148  0.49984887  1
  Se  Se2  1  0.49998347  0.00002470  0.00045041  1
  Se  Se3  1  0.00043651  0.50011751  0.50013209  1
