# generated using pymatgen
data_ZnCdSe2
_symmetry_space_group_name_H-M   'P 1'
_cell_length_a   4.49620150
_cell_length_b   5.28924612
_cell_length_c   4.49620471
_cell_angle_alpha   89.99999969
_cell_angle_beta   72.22288208
_cell_angle_gamma   90.00000220
_symmetry_Int_Tables_number   1
_chemical_formula_structural   ZnCdSe2
_chemical_formula_sum   'Zn1 Cd1 Se2'
_cell_volume   101.82097220
_cell_formula_units_Z   1
loop_
 _symmetry_equiv_pos_site_id
 _symmetry_equiv_pos_as_xyz
  1  'x, y, z'
loop_
 _atom_site_type_symbol
 _atom_site_label
 _atom_site_symmetry_multiplicity
 _atom_site_fract_x
 _atom_site_fract_y
 _atom_site_fract_z
 _atom_site_occupancy
  Cd  Cd0  1  0.50002481  0.50002620  -0.00005196  1
  Zn  Zn1  1  0.00039081  0.00002507  0.49985192  1
  Se  Se2  1  0.49990342  0.00003521  0.00042195  1
  Se  Se3  1  0.00023122  0.50015767  0.50008872  1
