# generated using pymatgen
data_ZnCdSeS
_symmetry_space_group_name_H-M   'P 1'
_cell_length_a   4.66507280
_cell_length_b   4.91916570
_cell_length_c   4.66540337
_cell_angle_alpha   89.99971843
_cell_angle_beta   90.00000917
_cell_angle_gamma   89.99993874
_symmetry_Int_Tables_number   1
_chemical_formula_structural   ZnCdSeS
_chemical_formula_sum   'Zn1 Cd1 Se1 S1'
_cell_volume   107.06291819
_cell_formula_units_Z   1
loop_
 _symmetry_equiv_pos_site_id
 _symmetry_equiv_pos_as_xyz
  1  'x, y, z'
loop_
 _atom_site_type_symbol
 _atom_site_label
 _atom_site_symmetry_multiplicity
 _atom_site_fract_x
 _atom_site_fract_y
 _atom_site_fract_z
 _atom_site_occupancy
  S  S0  1  0.49999987  0.50000001  -0.00000040  1
  Zn  Zn1  1  0.00001052  0.00000032  0.49999990  1
  Cd  Cd2  1  0.49999988  0.00000000  0.00000679  1
  Se  Se3  1  0.00000015  0.50000019  0.49999961  1
