# generated using pymatgen
data_ZnCd2S
_symmetry_space_group_name_H-M   'P 1'
_cell_length_a   3.91806826
_cell_length_b   5.63859397
_cell_length_c   3.91805957
_cell_angle_alpha   89.99990405
_cell_angle_beta   89.99996084
_cell_angle_gamma   89.99988219
_symmetry_Int_Tables_number   1
_chemical_formula_structural   ZnCd2S
_chemical_formula_sum   'Zn1 Cd2 S1'
_cell_volume   86.55932384
_cell_formula_units_Z   1
loop_
 _symmetry_equiv_pos_site_id
 _symmetry_equiv_pos_as_xyz
  1  'x, y, z'
loop_
 _atom_site_type_symbol
 _atom_site_label
 _atom_site_symmetry_multiplicity
 _atom_site_fract_x
 _atom_site_fract_y
 _atom_site_fract_z
 _atom_site_occupancy
  S  S0  1  0.49999101  0.49998740  0.00027363  1
  Zn  Zn1  1  0.00005264  0.00001185  0.50002918  1
  Cd  Cd2  1  0.50000920  0.00006435  0.00002607  1
  Cd  Cd3  1  0.00007749  0.50001473  0.49993644  1
