# generated using pymatgen
data_ZnCd2S
_symmetry_space_group_name_H-M   'P 1'
_cell_length_a   3.94652311
_cell_length_b   5.42795921
_cell_length_c   3.94648518
_cell_angle_alpha   90.00012827
_cell_angle_beta   89.99882447
_cell_angle_gamma   89.99991991
_symmetry_Int_Tables_number   1
_chemical_formula_structural   ZnCd2S
_chemical_formula_sum   'Zn1 Cd2 S1'
_cell_volume   84.53989450
_cell_formula_units_Z   1
loop_
 _symmetry_equiv_pos_site_id
 _symmetry_equiv_pos_as_xyz
  1  'x, y, z'
loop_
 _atom_site_type_symbol
 _atom_site_label
 _atom_site_symmetry_multiplicity
 _atom_site_fract_x
 _atom_site_fract_y
 _atom_site_fract_z
 _atom_site_occupancy
  Cd  Cd0  1  0.50000146  0.50004679  0.00000596  1
  Zn  Zn1  1  0.00003916  0.00001095  0.49999123  1
  S  S2  1  0.49998073  0.00003586  0.00001656  1
  Cd  Cd3  1  0.00000301  0.50001223  0.50000308  1
