# generated using pymatgen
data_ZnCd2S
_symmetry_space_group_name_H-M   'P 1'
_cell_length_a   3.91808410
_cell_length_b   5.63845518
_cell_length_c   3.91812761
_cell_angle_alpha   89.99995467
_cell_angle_beta   90.00065414
_cell_angle_gamma   89.99992086
_symmetry_Int_Tables_number   1
_chemical_formula_structural   ZnCd2S
_chemical_formula_sum   'Zn1 Cd2 S1'
_cell_volume   86.55904632
_cell_formula_units_Z   1
loop_
 _symmetry_equiv_pos_site_id
 _symmetry_equiv_pos_as_xyz
  1  'x, y, z'
loop_
 _atom_site_type_symbol
 _atom_site_label
 _atom_site_symmetry_multiplicity
 _atom_site_fract_x
 _atom_site_fract_y
 _atom_site_fract_z
 _atom_site_occupancy
  S  S0  1  0.49993888  0.49994121  0.00016627  1
  Zn  Zn1  1  0.00002308  0.00013222  0.50002655  1
  Cd  Cd2  1  0.50000746  0.00049478  0.00008423  1
  Cd  Cd3  1  0.00031606  0.50015333  0.49996390  1
