# generated using pymatgen
data_ZnCd2S
_symmetry_space_group_name_H-M   'P 1'
_cell_length_a   3.91812125
_cell_length_b   5.63850014
_cell_length_c   3.91805581
_cell_angle_alpha   89.99994056
_cell_angle_beta   89.99995029
_cell_angle_gamma   89.99996946
_symmetry_Int_Tables_number   1
_chemical_formula_structural   ZnCd2S
_chemical_formula_sum   'Zn1 Cd2 S1'
_cell_volume   86.55897092
_cell_formula_units_Z   1
loop_
 _symmetry_equiv_pos_site_id
 _symmetry_equiv_pos_as_xyz
  1  'x, y, z'
loop_
 _atom_site_type_symbol
 _atom_site_label
 _atom_site_symmetry_multiplicity
 _atom_site_fract_x
 _atom_site_fract_y
 _atom_site_fract_z
 _atom_site_occupancy
  S  S0  1  0.50000806  0.49994813  0.00001250  1
  Zn  Zn1  1  0.00007120  0.00000649  0.50003859  1
  Cd  Cd2  1  0.50000976  0.00021335  0.00028363  1
  Cd  Cd3  1  0.00000588  0.50001007  0.50000114  1
