# generated using pymatgen
data_ZnCd2S
_symmetry_space_group_name_H-M   'P 1'
_cell_length_a   3.91801932
_cell_length_b   5.63884291
_cell_length_c   3.91797015
_cell_angle_alpha   89.99944443
_cell_angle_beta   90.00018260
_cell_angle_gamma   89.99957879
_symmetry_Int_Tables_number   1
_chemical_formula_structural   ZnCd2S
_chemical_formula_sum   'Zn1 Cd2 S1'
_cell_volume   86.56008868
_cell_formula_units_Z   1
loop_
 _symmetry_equiv_pos_site_id
 _symmetry_equiv_pos_as_xyz
  1  'x, y, z'
loop_
 _atom_site_type_symbol
 _atom_site_label
 _atom_site_symmetry_multiplicity
 _atom_site_fract_x
 _atom_site_fract_y
 _atom_site_fract_z
 _atom_site_occupancy
  S  S0  1  0.50019429  0.49996990  0.00004238  1
  Zn  Zn1  1  0.00025573  0.00007311  0.50156020  1
  Cd  Cd2  1  0.50032253  0.00034968  0.00183175  1
  Cd  Cd3  1  0.00002100  0.50018807  0.50009950  1
