# generated using pymatgen
data_ZnCd2S
_symmetry_space_group_name_H-M   'P 1'
_cell_length_a   3.91806655
_cell_length_b   5.63859753
_cell_length_c   3.91806664
_cell_angle_alpha   90.00004769
_cell_angle_beta   89.99996640
_cell_angle_gamma   90.00004475
_symmetry_Int_Tables_number   1
_chemical_formula_structural   ZnCd2S
_chemical_formula_sum   'Zn1 Cd2 S1'
_cell_volume   86.55949708
_cell_formula_units_Z   1
loop_
 _symmetry_equiv_pos_site_id
 _symmetry_equiv_pos_as_xyz
  1  'x, y, z'
loop_
 _atom_site_type_symbol
 _atom_site_label
 _atom_site_symmetry_multiplicity
 _atom_site_fract_x
 _atom_site_fract_y
 _atom_site_fract_z
 _atom_site_occupancy
  S  S0  1  0.49996295  0.49996349  0.00006215  1
  Zn  Zn1  1  0.00000259  0.00002667  0.50000577  1
  Cd  Cd2  1  0.50000279  0.00018415  0.00000152  1
  Cd  Cd3  1  0.00018261  0.50003272  0.49998591  1
