# generated using pymatgen
data_ZnCdAsS
_symmetry_space_group_name_H-M   'P 1'
_cell_length_a   3.82599754
_cell_length_b   6.99689934
_cell_length_c   3.43745020
_cell_angle_alpha   89.95589695
_cell_angle_beta   90.00044199
_cell_angle_gamma   90.00033382
_symmetry_Int_Tables_number   1
_chemical_formula_structural   ZnCdAsS
_chemical_formula_sum   'Zn1 Cd1 As1 S1'
_cell_volume   92.02092581
_cell_formula_units_Z   1
loop_
 _symmetry_equiv_pos_site_id
 _symmetry_equiv_pos_as_xyz
  1  'x, y, z'
loop_
 _atom_site_type_symbol
 _atom_site_label
 _atom_site_symmetry_multiplicity
 _atom_site_fract_x
 _atom_site_fract_y
 _atom_site_fract_z
 _atom_site_occupancy
  Cd  Cd0  1  0.50001133  0.50002259  -0.00001381  1
  Zn  Zn1  1  0.00004632  0.00000658  0.50024679  1
  As  As2  1  0.49997144  -0.00001388  0.00127973  1
  S  S3  1  0.00000953  0.49999684  0.50009640  1
