# generated using pymatgen
data_ZnCd2S
_symmetry_space_group_name_H-M   'P 1'
_cell_length_a   3.91811844
_cell_length_b   5.63840598
_cell_length_c   3.91809883
_cell_angle_alpha   90.00002206
_cell_angle_beta   90.00078517
_cell_angle_gamma   90.00012249
_symmetry_Int_Tables_number   1
_chemical_formula_structural   ZnCd2S
_chemical_formula_sum   'Zn1 Cd2 S1'
_cell_volume   86.55841374
_cell_formula_units_Z   1
loop_
 _symmetry_equiv_pos_site_id
 _symmetry_equiv_pos_as_xyz
  1  'x, y, z'
loop_
 _atom_site_type_symbol
 _atom_site_label
 _atom_site_symmetry_multiplicity
 _atom_site_fract_x
 _atom_site_fract_y
 _atom_site_fract_z
 _atom_site_occupancy
  S  S0  1  0.49999741  0.50000069  0.00000972  1
  Zn  Zn1  1  0.00000671  0.00000492  0.50000560  1
  Cd  Cd2  1  0.50000106  0.00000625  0.00003623  1
  Cd  Cd3  1  0.00001775  0.50000562  0.49999836  1
