# generated using pymatgen
data_ZnCdGaS
_symmetry_space_group_name_H-M   'P 1'
_cell_length_a   3.70244693
_cell_length_b   6.94999728
_cell_length_c   3.70245612
_cell_angle_alpha   90.00033883
_cell_angle_beta   90.00002892
_cell_angle_gamma   89.99970917
_symmetry_Int_Tables_number   1
_chemical_formula_structural   ZnCdGaS
_chemical_formula_sum   'Zn1 Cd1 Ga1 S1'
_cell_volume   95.27158619
_cell_formula_units_Z   1
loop_
 _symmetry_equiv_pos_site_id
 _symmetry_equiv_pos_as_xyz
  1  'x, y, z'
loop_
 _atom_site_type_symbol
 _atom_site_label
 _atom_site_symmetry_multiplicity
 _atom_site_fract_x
 _atom_site_fract_y
 _atom_site_fract_z
 _atom_site_occupancy
  S  S0  1  0.50003678  0.50003520  -0.00001050  1
  Zn  Zn1  1  0.00009003  -0.00001333  0.50023401  1
  Ga  Ga2  1  0.49984788  0.00001143  -0.00001390  1
  Cd  Cd3  1  0.00005538  0.50000995  0.49999353  1
