# generated using pymatgen
data_ZnCd2S
_symmetry_space_group_name_H-M   'P 1'
_cell_length_a   3.91807627
_cell_length_b   5.63854647
_cell_length_c   3.91807108
_cell_angle_alpha   89.99992522
_cell_angle_beta   90.00050662
_cell_angle_gamma   89.99993832
_symmetry_Int_Tables_number   1
_chemical_formula_structural   ZnCd2S
_chemical_formula_sum   'Zn1 Cd2 S1'
_cell_volume   86.55902593
_cell_formula_units_Z   1
loop_
 _symmetry_equiv_pos_site_id
 _symmetry_equiv_pos_as_xyz
  1  'x, y, z'
loop_
 _atom_site_type_symbol
 _atom_site_label
 _atom_site_symmetry_multiplicity
 _atom_site_fract_x
 _atom_site_fract_y
 _atom_site_fract_z
 _atom_site_occupancy
  S  S0  1  0.49999977  0.49999695  0.00029912  1
  Zn  Zn1  1  0.00001520  0.00000164  0.50002815  1
  Cd  Cd2  1  0.50000240  0.00001333  0.00000340  1
  Cd  Cd3  1  0.00001033  0.50000221  0.49993018  1
