# generated using pymatgen
data_ZnCdSeS
_symmetry_space_group_name_H-M   'P 1'
_cell_length_a   4.36639860
_cell_length_b   5.11716479
_cell_length_c   4.36645493
_cell_angle_alpha   89.99969570
_cell_angle_beta   73.53126166
_cell_angle_gamma   89.99946570
_symmetry_Int_Tables_number   1
_chemical_formula_structural   ZnCdSeS
_chemical_formula_sum   'Zn1 Cd1 Se1 S1'
_cell_volume   93.55970588
_cell_formula_units_Z   1
loop_
 _symmetry_equiv_pos_site_id
 _symmetry_equiv_pos_as_xyz
  1  'x, y, z'
loop_
 _atom_site_type_symbol
 _atom_site_label
 _atom_site_symmetry_multiplicity
 _atom_site_fract_x
 _atom_site_fract_y
 _atom_site_fract_z
 _atom_site_occupancy
  Cd  Cd0  1  0.50080878  0.50018651  -0.00050216  1
  Zn  Zn1  1  0.00179027  0.00012231  0.50004909  1
  S  S2  1  0.50185412  0.00019177  0.00003711  1
  Se  Se3  1  0.00195789  0.50015812  0.50053594  1
