# generated using pymatgen
data_ZnCdS2
_symmetry_space_group_name_H-M   'P 1'
_cell_length_a   5.11115278
_cell_length_b   4.55908605
_cell_length_c   5.11115742
_cell_angle_alpha   89.99967617
_cell_angle_beta   90.00024457
_cell_angle_gamma   89.99976413
_symmetry_Int_Tables_number   1
_chemical_formula_structural   ZnCdS2
_chemical_formula_sum   'Zn1 Cd1 S2'
_cell_volume   119.10113751
_cell_formula_units_Z   1
loop_
 _symmetry_equiv_pos_site_id
 _symmetry_equiv_pos_as_xyz
  1  'x, y, z'
loop_
 _atom_site_type_symbol
 _atom_site_label
 _atom_site_symmetry_multiplicity
 _atom_site_fract_x
 _atom_site_fract_y
 _atom_site_fract_z
 _atom_site_occupancy
  S  S0  1  0.50000005  0.50000209  -0.00000106  1
  Zn  Zn1  1  0.00002476  0.00001198  0.50000101  1
  Cd  Cd2  1  0.50000072  0.00000212  0.00003234  1
  S  S3  1  0.00000814  0.49999978  0.49999822  1
