# generated using pymatgen
data_ZnCdGaS
_symmetry_space_group_name_H-M   'P 1'
_cell_length_a   4.22737549
_cell_length_b   5.07651209
_cell_length_c   4.22737925
_cell_angle_alpha   89.99994956
_cell_angle_beta   90.00044400
_cell_angle_gamma   90.00006737
_symmetry_Int_Tables_number   1
_chemical_formula_structural   ZnCdGaS
_chemical_formula_sum   'Zn1 Cd1 Ga1 S1'
_cell_volume   90.72092329
_cell_formula_units_Z   1
loop_
 _symmetry_equiv_pos_site_id
 _symmetry_equiv_pos_as_xyz
  1  'x, y, z'
loop_
 _atom_site_type_symbol
 _atom_site_label
 _atom_site_symmetry_multiplicity
 _atom_site_fract_x
 _atom_site_fract_y
 _atom_site_fract_z
 _atom_site_occupancy
  S  S0  1  0.50000016  0.50001150  0.00000091  1
  Zn  Zn1  1  0.00000576  0.00000309  0.50000052  1
  Cd  Cd2  1  0.50000003  0.00002165  0.00008069  1
  Ga  Ga3  1  0.00000251  0.49999974  0.49999878  1
