# generated using pymatgen
data_ZnCdS2
_symmetry_space_group_name_H-M   'P 1'
_cell_length_a   5.11118143
_cell_length_b   4.55909283
_cell_length_c   5.11113702
_cell_angle_alpha   90.00007853
_cell_angle_beta   89.99988058
_cell_angle_gamma   89.99967756
_symmetry_Int_Tables_number   1
_chemical_formula_structural   ZnCdS2
_chemical_formula_sum   'Zn1 Cd1 S2'
_cell_volume   119.10150681
_cell_formula_units_Z   1
loop_
 _symmetry_equiv_pos_site_id
 _symmetry_equiv_pos_as_xyz
  1  'x, y, z'
loop_
 _atom_site_type_symbol
 _atom_site_label
 _atom_site_symmetry_multiplicity
 _atom_site_fract_x
 _atom_site_fract_y
 _atom_site_fract_z
 _atom_site_occupancy
  S  S0  1  0.50000526  0.50023608  0.00020635  1
  Zn  Zn1  1  0.00003235  0.00000322  0.49999806  1
  Cd  Cd2  1  0.49999817  0.00023603  0.00011870  1
  S  S3  1  0.00002249  0.49996750  0.50004282  1
