# generated using pymatgen
data_ZnCd2S
_symmetry_space_group_name_H-M   'P 1'
_cell_length_a   3.94651204
_cell_length_b   5.42795661
_cell_length_c   3.94651521
_cell_angle_alpha   90.00015060
_cell_angle_beta   89.99954898
_cell_angle_gamma   90.00007430
_symmetry_Int_Tables_number   1
_chemical_formula_structural   ZnCd2S
_chemical_formula_sum   'Zn1 Cd2 S1'
_cell_volume   84.54026012
_cell_formula_units_Z   1
loop_
 _symmetry_equiv_pos_site_id
 _symmetry_equiv_pos_as_xyz
  1  'x, y, z'
loop_
 _atom_site_type_symbol
 _atom_site_label
 _atom_site_symmetry_multiplicity
 _atom_site_fract_x
 _atom_site_fract_y
 _atom_site_fract_z
 _atom_site_occupancy
  Cd  Cd0  1  0.50000464  0.50000702  0.00000143  1
  Zn  Zn1  1  0.00013046  0.00000548  0.49999041  1
  S  S2  1  0.49993848  0.00000564  0.00001914  1
  Cd  Cd3  1  0.00001081  0.50000530  0.50000115  1
