# generated using pymatgen
data_ZnCdS2
_symmetry_space_group_name_H-M   'P 1'
_cell_length_a   5.11108104
_cell_length_b   4.55909172
_cell_length_c   5.11126370
_cell_angle_alpha   90.00007667
_cell_angle_beta   90.00132641
_cell_angle_gamma   90.00007985
_symmetry_Int_Tables_number   1
_chemical_formula_structural   ZnCdS2
_chemical_formula_sum   'Zn1 Cd1 S2'
_cell_volume   119.10209053
_cell_formula_units_Z   1
loop_
 _symmetry_equiv_pos_site_id
 _symmetry_equiv_pos_as_xyz
  1  'x, y, z'
loop_
 _atom_site_type_symbol
 _atom_site_label
 _atom_site_symmetry_multiplicity
 _atom_site_fract_x
 _atom_site_fract_y
 _atom_site_fract_z
 _atom_site_occupancy
  S  S0  1  0.49994648  0.50010974  0.00016657  1
  Zn  Zn1  1  0.00023925  0.00033466  0.49999275  1
  Cd  Cd2  1  0.50024326  0.00011093  0.00016271  1
  S  S3  1  0.00028074  0.50009447  0.50003126  1
