# generated using pymatgen
data_ZnCd2S
_symmetry_space_group_name_H-M   'P 1'
_cell_length_a   3.91806321
_cell_length_b   5.63858276
_cell_length_c   3.91807426
_cell_angle_alpha   89.99975417
_cell_angle_beta   90.00037301
_cell_angle_gamma   89.99993761
_symmetry_Int_Tables_number   1
_chemical_formula_structural   ZnCd2S
_chemical_formula_sum   'Zn1 Cd2 S1'
_cell_volume   86.55936484
_cell_formula_units_Z   1
loop_
 _symmetry_equiv_pos_site_id
 _symmetry_equiv_pos_as_xyz
  1  'x, y, z'
loop_
 _atom_site_type_symbol
 _atom_site_label
 _atom_site_symmetry_multiplicity
 _atom_site_fract_x
 _atom_site_fract_y
 _atom_site_fract_z
 _atom_site_occupancy
  S  S0  1  0.50002157  0.49999705  0.00001377  1
  Zn  Zn1  1  0.00015732  0.00000087  0.50000953  1
  Cd  Cd2  1  0.50002309  0.00001010  0.00005877  1
  Cd  Cd3  1  -0.00000068  0.50000140  0.49999777  1
