# generated using pymatgen
data_ZnCd2S
_symmetry_space_group_name_H-M   'P 1'
_cell_length_a   3.91812833
_cell_length_b   5.63860735
_cell_length_c   3.91800005
_cell_angle_alpha   89.99991974
_cell_angle_beta   90.00018219
_cell_angle_gamma   89.99995987
_symmetry_Int_Tables_number   1
_chemical_formula_structural   ZnCd2S
_chemical_formula_sum   'Zn1 Cd2 S1'
_cell_volume   86.55954146
_cell_formula_units_Z   1
loop_
 _symmetry_equiv_pos_site_id
 _symmetry_equiv_pos_as_xyz
  1  'x, y, z'
loop_
 _atom_site_type_symbol
 _atom_site_label
 _atom_site_symmetry_multiplicity
 _atom_site_fract_x
 _atom_site_fract_y
 _atom_site_fract_z
 _atom_site_occupancy
  S  S0  1  0.49999420  0.50000598  0.00000895  1
  Zn  Zn1  1  0.00000210  0.00001131  0.50000508  1
  Cd  Cd2  1  0.50000078  0.00000044  0.00003068  1
  Cd  Cd3  1  0.00003017  0.50001271  0.49999833  1
