# generated using pymatgen
data_ZnCdSeS
_symmetry_space_group_name_H-M   'P 1'
_cell_length_a   4.66525290
_cell_length_b   4.91916428
_cell_length_c   4.66523617
_cell_angle_alpha   90.00012984
_cell_angle_beta   90.00011043
_cell_angle_gamma   90.00003156
_symmetry_Int_Tables_number   1
_chemical_formula_structural   ZnCdSeS
_chemical_formula_sum   'Zn1 Cd1 Se1 S1'
_cell_volume   107.06318321
_cell_formula_units_Z   1
loop_
 _symmetry_equiv_pos_site_id
 _symmetry_equiv_pos_as_xyz
  1  'x, y, z'
loop_
 _atom_site_type_symbol
 _atom_site_label
 _atom_site_symmetry_multiplicity
 _atom_site_fract_x
 _atom_site_fract_y
 _atom_site_fract_z
 _atom_site_occupancy
  S  S0  1  0.49999693  0.50001592  0.00002270  1
  Zn  Zn1  1  0.00021480  0.00000864  0.49997490  1
  Cd  Cd2  1  0.49999049  0.00001622  0.00064845  1
  Se  Se3  1  0.00001000  0.50000602  0.49995991  1
