# generated using pymatgen
data_ZnCd2S
_symmetry_space_group_name_H-M   'P 1'
_cell_length_a   3.94653351
_cell_length_b   5.42794613
_cell_length_c   3.94648437
_cell_angle_alpha   89.99954023
_cell_angle_beta   90.00049509
_cell_angle_gamma   89.99985445
_symmetry_Int_Tables_number   1
_chemical_formula_structural   ZnCd2S
_chemical_formula_sum   'Zn1 Cd2 S1'
_cell_volume   84.53989608
_cell_formula_units_Z   1
loop_
 _symmetry_equiv_pos_site_id
 _symmetry_equiv_pos_as_xyz
  1  'x, y, z'
loop_
 _atom_site_type_symbol
 _atom_site_label
 _atom_site_symmetry_multiplicity
 _atom_site_fract_x
 _atom_site_fract_y
 _atom_site_fract_z
 _atom_site_occupancy
  Cd  Cd0  1  0.50000514  0.50000296  0.00000161  1
  Zn  Zn1  1  0.00018518  0.00000742  0.49998054  1
  S  S2  1  0.49990799  0.00000310  0.00003612  1
  Cd  Cd3  1  0.00000992  0.50000683  0.50000178  1
