# generated using pymatgen
data_ZnCd2S
_symmetry_space_group_name_H-M   'P 1'
_cell_length_a   3.91807081
_cell_length_b   5.63853181
_cell_length_c   3.91808508
_cell_angle_alpha   89.99999737
_cell_angle_beta   90.00017899
_cell_angle_gamma   90.00002330
_symmetry_Int_Tables_number   1
_chemical_formula_structural   ZnCd2S
_chemical_formula_sum   'Zn1 Cd2 S1'
_cell_volume   86.55898952
_cell_formula_units_Z   1
loop_
 _symmetry_equiv_pos_site_id
 _symmetry_equiv_pos_as_xyz
  1  'x, y, z'
loop_
 _atom_site_type_symbol
 _atom_site_label
 _atom_site_symmetry_multiplicity
 _atom_site_fract_x
 _atom_site_fract_y
 _atom_site_fract_z
 _atom_site_occupancy
  S  S0  1  0.49998540  0.50003701  0.00015390  1
  Zn  Zn1  1  0.00000694  0.00007809  0.50001785  1
  Cd  Cd2  1  0.50000194  0.00003643  0.00002531  1
  Cd  Cd3  1  0.00007294  0.50008716  0.49996432  1
