# generated using pymatgen
data_ZnCdSeS
_symmetry_space_group_name_H-M   'P 1'
_cell_length_a   4.66518964
_cell_length_b   4.91915972
_cell_length_c   4.66528952
_cell_angle_alpha   89.99967124
_cell_angle_beta   90.00015332
_cell_angle_gamma   89.99981440
_symmetry_Int_Tables_number   1
_chemical_formula_structural   ZnCdSeS
_chemical_formula_sum   'Zn1 Cd1 Se1 S1'
_cell_volume   107.06285671
_cell_formula_units_Z   1
loop_
 _symmetry_equiv_pos_site_id
 _symmetry_equiv_pos_as_xyz
  1  'x, y, z'
loop_
 _atom_site_type_symbol
 _atom_site_label
 _atom_site_symmetry_multiplicity
 _atom_site_fract_x
 _atom_site_fract_y
 _atom_site_fract_z
 _atom_site_occupancy
  S  S0  1  0.50001215  0.50008890  0.00004266  1
  Zn  Zn1  1  0.00000487  0.00000154  0.49999827  1
  Cd  Cd2  1  0.49999534  0.00009227  0.00002879  1
  Se  Se3  1  0.00004845  0.49999194  0.50000897  1
