# generated using pymatgen
data_ZnCdSeS
_symmetry_space_group_name_H-M   'P 1'
_cell_length_a   4.66523870
_cell_length_b   4.91916893
_cell_length_c   4.66523158
_cell_angle_alpha   89.99988048
_cell_angle_beta   90.00013202
_cell_angle_gamma   90.00074581
_symmetry_Int_Tables_number   1
_chemical_formula_structural   ZnCdSeS
_chemical_formula_sum   'Zn1 Cd1 Se1 S1'
_cell_volume   107.06285335
_cell_formula_units_Z   1
loop_
 _symmetry_equiv_pos_site_id
 _symmetry_equiv_pos_as_xyz
  1  'x, y, z'
loop_
 _atom_site_type_symbol
 _atom_site_label
 _atom_site_symmetry_multiplicity
 _atom_site_fract_x
 _atom_site_fract_y
 _atom_site_fract_z
 _atom_site_occupancy
  S  S0  1  0.49999329  0.50000322  -0.00002561  1
  Zn  Zn1  1  0.00087898  0.00002560  0.49999005  1
  Cd  Cd2  1  0.49997484  0.00000325  0.00049099  1
  Se  Se3  1  0.00005892  0.50001839  0.49995826  1
