# generated using pymatgen
data_ZnCd2S
_symmetry_space_group_name_H-M   'P 1'
_cell_length_a   3.91807083
_cell_length_b   5.63853899
_cell_length_c   3.91807319
_cell_angle_alpha   89.99986006
_cell_angle_beta   89.99969296
_cell_angle_gamma   89.99992238
_symmetry_Int_Tables_number   1
_chemical_formula_structural   ZnCd2S
_chemical_formula_sum   'Zn1 Cd2 S1'
_cell_volume   86.55883738
_cell_formula_units_Z   1
loop_
 _symmetry_equiv_pos_site_id
 _symmetry_equiv_pos_as_xyz
  1  'x, y, z'
loop_
 _atom_site_type_symbol
 _atom_site_label
 _atom_site_symmetry_multiplicity
 _atom_site_fract_x
 _atom_site_fract_y
 _atom_site_fract_z
 _atom_site_occupancy
  S  S0  1  0.49999508  0.49999916  0.00001460  1
  Zn  Zn1  1  0.00000053  0.00000146  0.50000273  1
  Cd  Cd2  1  0.50000030  0.00000434  0.00001054  1
  Cd  Cd3  1  0.00002376  0.50000182  0.49999663  1
