# generated using pymatgen
data_ZnCd2S
_symmetry_space_group_name_H-M   'P 1'
_cell_length_a   3.91805509
_cell_length_b   5.63863178
_cell_length_c   3.91806594
_cell_angle_alpha   89.99951504
_cell_angle_beta   89.99948207
_cell_angle_gamma   89.99997858
_symmetry_Int_Tables_number   1
_chemical_formula_structural   ZnCd2S
_chemical_formula_sum   'Zn1 Cd2 S1'
_cell_volume   86.55975405
_cell_formula_units_Z   1
loop_
 _symmetry_equiv_pos_site_id
 _symmetry_equiv_pos_as_xyz
  1  'x, y, z'
loop_
 _atom_site_type_symbol
 _atom_site_label
 _atom_site_symmetry_multiplicity
 _atom_site_fract_x
 _atom_site_fract_y
 _atom_site_fract_z
 _atom_site_occupancy
  S  S0  1  0.50005326  0.50050917  0.00121201  1
  Zn  Zn1  1  0.00010484  0.00003011  0.49987658  1
  Cd  Cd2  1  0.49998042  0.00031664  0.00029749  1
  Cd  Cd3  1  0.00020991  0.49998151  0.50028702  1
