# generated using pymatgen
data_ZnCdGaS
_symmetry_space_group_name_H-M   'P 1'
_cell_length_a   4.22737086
_cell_length_b   5.07651360
_cell_length_c   4.22737095
_cell_angle_alpha   90.00003726
_cell_angle_beta   89.99910872
_cell_angle_gamma   90.00004075
_symmetry_Int_Tables_number   1
_chemical_formula_structural   ZnCdGaS
_chemical_formula_sum   'Zn1 Cd1 Ga1 S1'
_cell_volume   90.72067286
_cell_formula_units_Z   1
loop_
 _symmetry_equiv_pos_site_id
 _symmetry_equiv_pos_as_xyz
  1  'x, y, z'
loop_
 _atom_site_type_symbol
 _atom_site_label
 _atom_site_symmetry_multiplicity
 _atom_site_fract_x
 _atom_site_fract_y
 _atom_site_fract_z
 _atom_site_occupancy
  S  S0  1  0.49999591  0.50004442  0.00004375  1
  Zn  Zn1  1  0.00001961  0.00005962  0.50000201  1
  Cd  Cd2  1  0.49999849  0.00007644  0.00000536  1
  Ga  Ga3  1  0.00011696  0.50001226  0.49999783  1
