# generated using pymatgen
data_ZnCdSeS
_symmetry_space_group_name_H-M   'P 1'
_cell_length_a   4.66523609
_cell_length_b   4.91915681
_cell_length_c   4.66524322
_cell_angle_alpha   90.00000081
_cell_angle_beta   89.99996589
_cell_angle_gamma   90.00014324
_symmetry_Int_Tables_number   1
_chemical_formula_structural   ZnCdSeS
_chemical_formula_sum   'Zn1 Cd1 Se1 S1'
_cell_volume   107.06279671
_cell_formula_units_Z   1
loop_
 _symmetry_equiv_pos_site_id
 _symmetry_equiv_pos_as_xyz
  1  'x, y, z'
loop_
 _atom_site_type_symbol
 _atom_site_label
 _atom_site_symmetry_multiplicity
 _atom_site_fract_x
 _atom_site_fract_y
 _atom_site_fract_z
 _atom_site_occupancy
  S  S0  1  0.50000270  0.50003616  0.00004544  1
  Zn  Zn1  1  0.00000274  0.00001173  0.49999824  1
  Cd  Cd2  1  0.49999889  0.00003720  0.00002061  1
  Se  Se3  1  0.00001024  0.50000365  0.50001098  1
