# generated using pymatgen
data_ZnCd2S
_symmetry_space_group_name_H-M   'P 1'
_cell_length_a   3.91811032
_cell_length_b   5.63853245
_cell_length_c   3.91805153
_cell_angle_alpha   90.00054816
_cell_angle_beta   89.99826531
_cell_angle_gamma   90.00038864
_symmetry_Int_Tables_number   1
_chemical_formula_structural   ZnCd2S
_chemical_formula_sum   'Zn1 Cd2 S1'
_cell_volume   86.55913085
_cell_formula_units_Z   1
loop_
 _symmetry_equiv_pos_site_id
 _symmetry_equiv_pos_as_xyz
  1  'x, y, z'
loop_
 _atom_site_type_symbol
 _atom_site_label
 _atom_site_symmetry_multiplicity
 _atom_site_fract_x
 _atom_site_fract_y
 _atom_site_fract_z
 _atom_site_occupancy
  S  S0  1  0.50000405  0.50001006  0.00000508  1
  Zn  Zn1  1  0.00004243  0.00002318  0.50000064  1
  Cd  Cd2  1  0.50000585  0.00001263  0.00000115  1
  Cd  Cd3  1  0.00000598  0.50002569  0.49999873  1
