# generated using pymatgen
data_ZnCdSe2
_symmetry_space_group_name_H-M   'P 1'
_cell_length_a   4.97472434
_cell_length_b   5.21404126
_cell_length_c   5.21977484
_cell_angle_alpha   94.58054112
_cell_angle_beta   93.39832649
_cell_angle_gamma   86.89508709
_symmetry_Int_Tables_number   1
_chemical_formula_structural   ZnCdSe2
_chemical_formula_sum   'Zn1 Cd1 Se2'
_cell_volume   134.55661292
_cell_formula_units_Z   1
loop_
 _symmetry_equiv_pos_site_id
 _symmetry_equiv_pos_as_xyz
  1  'x, y, z'
loop_
 _atom_site_type_symbol
 _atom_site_label
 _atom_site_symmetry_multiplicity
 _atom_site_fract_x
 _atom_site_fract_y
 _atom_site_fract_z
 _atom_site_occupancy
  Se  Se0  1  0.50001834  0.50001400  0.00000546  1
  Zn  Zn1  1  0.00001855  0.00001155  0.49999966  1
  Cd  Cd2  1  0.50000306  -0.00000229  0.00001100  1
  Se  Se3  1  0.00001612  0.50000973  0.50000438  1
