# generated using pymatgen
data_ZnCdS2
_symmetry_space_group_name_H-M   'P 1'
_cell_length_a   5.11113439
_cell_length_b   4.55909065
_cell_length_c   5.11117786
_cell_angle_alpha   89.99988283
_cell_angle_beta   90.00031952
_cell_angle_gamma   89.99981963
_symmetry_Int_Tables_number   1
_chemical_formula_structural   ZnCdS2
_chemical_formula_sum   'Zn1 Cd1 S2'
_cell_volume   119.10130552
_cell_formula_units_Z   1
loop_
 _symmetry_equiv_pos_site_id
 _symmetry_equiv_pos_as_xyz
  1  'x, y, z'
loop_
 _atom_site_type_symbol
 _atom_site_label
 _atom_site_symmetry_multiplicity
 _atom_site_fract_x
 _atom_site_fract_y
 _atom_site_fract_z
 _atom_site_occupancy
  S  S0  1  0.50004943  0.50021475  0.00007538  1
  Zn  Zn1  1  0.00009426  0.00002176  0.50000131  1
  Cd  Cd2  1  0.49997772  0.00021482  0.00011388  1
  S  S3  1  0.00017191  0.49997976  0.50000998  1
