# generated using pymatgen
data_ZnCd2S
_symmetry_space_group_name_H-M   'P 1'
_cell_length_a   3.91808568
_cell_length_b   5.63858507
_cell_length_c   3.91804618
_cell_angle_alpha   90.00001046
_cell_angle_beta   90.00097006
_cell_angle_gamma   89.99996276
_symmetry_Int_Tables_number   1
_chemical_formula_structural   ZnCd2S
_chemical_formula_sum   'Zn1 Cd2 S1'
_cell_volume   86.55927598
_cell_formula_units_Z   1
loop_
 _symmetry_equiv_pos_site_id
 _symmetry_equiv_pos_as_xyz
  1  'x, y, z'
loop_
 _atom_site_type_symbol
 _atom_site_label
 _atom_site_symmetry_multiplicity
 _atom_site_fract_x
 _atom_site_fract_y
 _atom_site_fract_z
 _atom_site_occupancy
  S  S0  1  0.50000741  0.49996954  0.00010978  1
  Zn  Zn1  1  0.00011035  0.00000759  0.50001732  1
  Cd  Cd2  1  0.50001661  0.00012336  0.00005237  1
  Cd  Cd3  1  0.00003597  0.50001069  0.49997576  1
