# generated using pymatgen
data_ZnCd2S
_symmetry_space_group_name_H-M   'P 1'
_cell_length_a   3.91803880
_cell_length_b   5.63847979
_cell_length_c   3.91814550
_cell_angle_alpha   89.99993772
_cell_angle_beta   90.00115453
_cell_angle_gamma   89.99995112
_symmetry_Int_Tables_number   1
_chemical_formula_structural   ZnCd2S
_chemical_formula_sum   'Zn1 Cd2 S1'
_cell_volume   86.55881856
_cell_formula_units_Z   1
loop_
 _symmetry_equiv_pos_site_id
 _symmetry_equiv_pos_as_xyz
  1  'x, y, z'
loop_
 _atom_site_type_symbol
 _atom_site_label
 _atom_site_symmetry_multiplicity
 _atom_site_fract_x
 _atom_site_fract_y
 _atom_site_fract_z
 _atom_site_occupancy
  S  S0  1  0.50000265  0.49996684  0.00001872  1
  Zn  Zn1  1  0.00007339  0.00000865  0.50002502  1
  Cd  Cd2  1  0.50001048  0.00014566  0.00017782  1
  Cd  Cd3  1  0.00003498  0.50001165  0.49999839  1
