# generated using pymatgen
data_ZnCdS2
_symmetry_space_group_name_H-M   'P 1'
_cell_length_a   5.11107795
_cell_length_b   4.55908073
_cell_length_c   5.11121764
_cell_angle_alpha   90.00019256
_cell_angle_beta   90.00036814
_cell_angle_gamma   89.99973614
_symmetry_Int_Tables_number   1
_chemical_formula_structural   ZnCdS2
_chemical_formula_sum   'Zn1 Cd1 S2'
_cell_volume   119.10065806
_cell_formula_units_Z   1
loop_
 _symmetry_equiv_pos_site_id
 _symmetry_equiv_pos_as_xyz
  1  'x, y, z'
loop_
 _atom_site_type_symbol
 _atom_site_label
 _atom_site_symmetry_multiplicity
 _atom_site_fract_x
 _atom_site_fract_y
 _atom_site_fract_z
 _atom_site_occupancy
  S  S0  1  0.50003971  0.50000298  -0.00010672  1
  Zn  Zn1  1  0.00003624  0.00013391  0.50002207  1
  Cd  Cd2  1  0.49998243  0.00000364  0.00065033  1
  S  S3  1  0.00014008  0.50000199  0.49995111  1
