# generated using pymatgen
data_ZnCd2S
_symmetry_space_group_name_H-M   'P 1'
_cell_length_a   3.91803802
_cell_length_b   5.63858583
_cell_length_c   3.91808839
_cell_angle_alpha   89.99990382
_cell_angle_beta   90.00038741
_cell_angle_gamma   89.99991387
_symmetry_Int_Tables_number   1
_chemical_formula_structural   ZnCd2S
_chemical_formula_sum   'Zn1 Cd2 S1'
_cell_volume   86.55916749
_cell_formula_units_Z   1
loop_
 _symmetry_equiv_pos_site_id
 _symmetry_equiv_pos_as_xyz
  1  'x, y, z'
loop_
 _atom_site_type_symbol
 _atom_site_label
 _atom_site_symmetry_multiplicity
 _atom_site_fract_x
 _atom_site_fract_y
 _atom_site_fract_z
 _atom_site_occupancy
  S  S0  1  0.50000608  0.49999942  0.00007101  1
  Zn  Zn1  1  0.00006463  0.00000115  0.50001365  1
  Cd  Cd2  1  0.50000957  0.00000418  0.00005159  1
  Cd  Cd3  1  0.00001293  0.50000155  0.49998461  1
