# generated using pymatgen
data_ZnCd2S
_symmetry_space_group_name_H-M   'P 1'
_cell_length_a   3.91810133
_cell_length_b   5.63855452
_cell_length_c   3.91805112
_cell_angle_alpha   89.99994411
_cell_angle_beta   90.00082934
_cell_angle_gamma   90.00011591
_symmetry_Int_Tables_number   1
_chemical_formula_structural   ZnCd2S
_chemical_formula_sum   'Zn1 Cd2 S1'
_cell_volume   86.55926194
_cell_formula_units_Z   1
loop_
 _symmetry_equiv_pos_site_id
 _symmetry_equiv_pos_as_xyz
  1  'x, y, z'
loop_
 _atom_site_type_symbol
 _atom_site_label
 _atom_site_symmetry_multiplicity
 _atom_site_fract_x
 _atom_site_fract_y
 _atom_site_fract_z
 _atom_site_occupancy
  S  S0  1  0.49999952  0.50010864  0.00000179  1
  Zn  Zn1  1  0.00003221  0.00017766  0.50000395  1
  Cd  Cd2  1  0.50000506  -0.00001070  0.00002703  1
  Cd  Cd3  1  0.00002373  0.50019563  0.49999997  1
