# generated using pymatgen
data_ZnCdSe2
_symmetry_space_group_name_H-M   'P 1'
_cell_length_a   4.49620066
_cell_length_b   5.28924808
_cell_length_c   4.49620064
_cell_angle_alpha   89.99975142
_cell_angle_beta   72.22283330
_cell_angle_gamma   89.99978678
_symmetry_Int_Tables_number   1
_chemical_formula_structural   ZnCdSe2
_chemical_formula_sum   'Zn1 Cd1 Se2'
_cell_volume   101.82087078
_cell_formula_units_Z   1
loop_
 _symmetry_equiv_pos_site_id
 _symmetry_equiv_pos_as_xyz
  1  'x, y, z'
loop_
 _atom_site_type_symbol
 _atom_site_label
 _atom_site_symmetry_multiplicity
 _atom_site_fract_x
 _atom_site_fract_y
 _atom_site_fract_z
 _atom_site_occupancy
  Cd  Cd0  1  0.50000280  0.50020045  -0.00004536  1
  Zn  Zn1  1  0.00024099  0.00009694  0.49979495  1
  Se  Se2  1  0.49987921  0.00016077  0.00037537  1
  Se  Se3  1  0.00009210  0.50010981  0.50005292  1
