# generated using pymatgen
data_ZnGaSeS
_symmetry_space_group_name_H-M   'P 1'
_cell_length_a   4.66752220
_cell_length_b   4.65016595
_cell_length_c   4.66749852
_cell_angle_alpha   90.00000823
_cell_angle_beta   89.99984090
_cell_angle_gamma   90.00013370
_symmetry_Int_Tables_number   1
_chemical_formula_structural   ZnGaSeS
_chemical_formula_sum   'Zn1 Ga1 Se1 S1'
_cell_volume   101.30690163
_cell_formula_units_Z   1
loop_
 _symmetry_equiv_pos_site_id
 _symmetry_equiv_pos_as_xyz
  1  'x, y, z'
loop_
 _atom_site_type_symbol
 _atom_site_label
 _atom_site_symmetry_multiplicity
 _atom_site_fract_x
 _atom_site_fract_y
 _atom_site_fract_z
 _atom_site_occupancy
  Ga  Ga0  1  0.49999835  0.50005728  0.00001110  1
  Zn  Zn1  1  0.00001618  0.00015092  0.50000118  1
  S  S2  1  0.50000513  0.00127436  0.00001384  1
  Se  Se3  1  0.00017043  0.50013496  0.50000027  1
