# generated using pymatgen
data_ZnGaSe2
_symmetry_space_group_name_H-M   'P 1'
_cell_length_a   4.65525055
_cell_length_b   4.79955717
_cell_length_c   4.65524878
_cell_angle_alpha   90.00000284
_cell_angle_beta   89.99998736
_cell_angle_gamma   89.99994956
_symmetry_Int_Tables_number   1
_chemical_formula_structural   ZnGaSe2
_chemical_formula_sum   'Zn1 Ga1 Se2'
_cell_volume   104.01288061
_cell_formula_units_Z   1
loop_
 _symmetry_equiv_pos_site_id
 _symmetry_equiv_pos_as_xyz
  1  'x, y, z'
loop_
 _atom_site_type_symbol
 _atom_site_label
 _atom_site_symmetry_multiplicity
 _atom_site_fract_x
 _atom_site_fract_y
 _atom_site_fract_z
 _atom_site_occupancy
  Ga  Ga0  1  0.49999262  0.50000191  0.00001633  1
  Zn  Zn1  1  0.00001358  0.00003413  0.49999883  1
  Se  Se2  1  0.50000716  0.00000489  0.00006348  1
  Se  Se3  1  0.00020199  0.50002173  0.50000173  1
