# generated using pymatgen
data_ZnGa2S
_symmetry_space_group_name_H-M   'P 1'
_cell_length_a   4.74439171
_cell_length_b   4.89702375
_cell_length_c   4.74463610
_cell_angle_alpha   90.00031936
_cell_angle_beta   89.99997956
_cell_angle_gamma   89.99989749
_symmetry_Int_Tables_number   1
_chemical_formula_structural   ZnGa2S
_chemical_formula_sum   'Zn1 Ga2 S1'
_cell_volume   110.23402318
_cell_formula_units_Z   1
loop_
 _symmetry_equiv_pos_site_id
 _symmetry_equiv_pos_as_xyz
  1  'x, y, z'
loop_
 _atom_site_type_symbol
 _atom_site_label
 _atom_site_symmetry_multiplicity
 _atom_site_fract_x
 _atom_site_fract_y
 _atom_site_fract_z
 _atom_site_occupancy
  Ga  Ga0  1  0.49999492  0.50068981  0.00012542  1
  Zn  Zn1  1  0.00006853  0.00005636  0.50000043  1
  S  S2  1  0.50001668  0.00063345  0.00003467  1
  Ga  Ga3  1  0.00001670  0.50011294  0.50001025  1
