# generated using pymatgen
data_ZnGaSe2
_symmetry_space_group_name_H-M   'P 1'
_cell_length_a   4.65525074
_cell_length_b   4.79956358
_cell_length_c   4.65522856
_cell_angle_alpha   89.99999902
_cell_angle_beta   90.00010928
_cell_angle_gamma   89.99999635
_symmetry_Int_Tables_number   1
_chemical_formula_structural   ZnGaSe2
_chemical_formula_sum   'Zn1 Ga1 Se2'
_cell_volume   104.01257197
_cell_formula_units_Z   1
loop_
 _symmetry_equiv_pos_site_id
 _symmetry_equiv_pos_as_xyz
  1  'x, y, z'
loop_
 _atom_site_type_symbol
 _atom_site_label
 _atom_site_symmetry_multiplicity
 _atom_site_fract_x
 _atom_site_fract_y
 _atom_site_fract_z
 _atom_site_occupancy
  Ga  Ga0  1  0.49999602  0.50000249  -0.00001593  1
  Zn  Zn1  1  0.00018337  0.00000744  0.49998906  1
  Se  Se2  1  0.49999769  0.00000419  0.00066964  1
  Se  Se3  1  0.00001321  0.50000568  0.50002856  1
