# generated using pymatgen
data_ZnGaSeS
_symmetry_space_group_name_H-M   'P 1'
_cell_length_a   4.66751960
_cell_length_b   4.65016863
_cell_length_c   4.66740703
_cell_angle_alpha   90.00001471
_cell_angle_beta   90.00013962
_cell_angle_gamma   89.99987899
_symmetry_Int_Tables_number   1
_chemical_formula_structural   ZnGaSeS
_chemical_formula_sum   'Zn1 Ga1 Se1 S1'
_cell_volume   101.30491789
_cell_formula_units_Z   1
loop_
 _symmetry_equiv_pos_site_id
 _symmetry_equiv_pos_as_xyz
  1  'x, y, z'
loop_
 _atom_site_type_symbol
 _atom_site_label
 _atom_site_symmetry_multiplicity
 _atom_site_fract_x
 _atom_site_fract_y
 _atom_site_fract_z
 _atom_site_occupancy
  Ga  Ga0  1  0.49999343  0.49999927  0.00000220  1
  Zn  Zn1  1  0.00013396  0.00004313  0.50004739  1
  S  S2  1  0.50002635  0.00000076  0.00039680  1
  Se  Se3  1  0.00040070  0.50003759  0.50001211  1
