# generated using pymatgen
data_ZnGa2Se
_symmetry_space_group_name_H-M   'P 1'
_cell_length_a   3.54881637
_cell_length_b   7.54591777
_cell_length_c   3.54882527
_cell_angle_alpha   89.99920791
_cell_angle_beta   89.07401159
_cell_angle_gamma   90.00003930
_symmetry_Int_Tables_number   1
_chemical_formula_structural   ZnGa2Se
_chemical_formula_sum   'Zn1 Ga2 Se1'
_cell_volume   95.02185238
_cell_formula_units_Z   1
loop_
 _symmetry_equiv_pos_site_id
 _symmetry_equiv_pos_as_xyz
  1  'x, y, z'
loop_
 _atom_site_type_symbol
 _atom_site_label
 _atom_site_symmetry_multiplicity
 _atom_site_fract_x
 _atom_site_fract_y
 _atom_site_fract_z
 _atom_site_occupancy
  Ga  Ga0  1  0.50001451  0.50002525  0.00001564  1
  Zn  Zn1  1  0.00002555  0.00003235  0.50002329  1
  Se  Se2  1  0.50002064  0.00002827  0.00001584  1
  Ga  Ga3  1  0.00002230  0.49995580  0.50001795  1
