# generated using pymatgen
data_ZnGaS2
_symmetry_space_group_name_H-M   'P 1'
_cell_length_a   4.42713015
_cell_length_b   4.48110594
_cell_length_c   4.42713383
_cell_angle_alpha   89.99999061
_cell_angle_beta   89.99978818
_cell_angle_gamma   90.00003155
_symmetry_Int_Tables_number   1
_chemical_formula_structural   ZnGaS2
_chemical_formula_sum   'Zn1 Ga1 S2'
_cell_volume   87.82742543
_cell_formula_units_Z   1
loop_
 _symmetry_equiv_pos_site_id
 _symmetry_equiv_pos_as_xyz
  1  'x, y, z'
loop_
 _atom_site_type_symbol
 _atom_site_label
 _atom_site_symmetry_multiplicity
 _atom_site_fract_x
 _atom_site_fract_y
 _atom_site_fract_z
 _atom_site_occupancy
  Ga  Ga0  1  0.50000010  0.50000112  0.00026635  1
  Zn  Zn1  1  0.00002342  0.00000088  0.50000750  1
  S  S2  1  0.50000090  0.00000127  0.00008508  1
  S  S3  1  0.00000697  0.50000052  0.49999109  1
