# generated using pymatgen
data_ZnGaSe2
_symmetry_space_group_name_H-M   'P 1'
_cell_length_a   4.65524892
_cell_length_b   4.79955789
_cell_length_c   4.65524181
_cell_angle_alpha   90.00000263
_cell_angle_beta   89.99901089
_cell_angle_gamma   90.00001781
_symmetry_Int_Tables_number   1
_chemical_formula_structural   ZnGaSe2
_chemical_formula_sum   'Zn1 Ga1 Se2'
_cell_volume   104.01270387
_cell_formula_units_Z   1
loop_
 _symmetry_equiv_pos_site_id
 _symmetry_equiv_pos_as_xyz
  1  'x, y, z'
loop_
 _atom_site_type_symbol
 _atom_site_label
 _atom_site_symmetry_multiplicity
 _atom_site_fract_x
 _atom_site_fract_y
 _atom_site_fract_z
 _atom_site_occupancy
  Ga  Ga0  1  0.49999407  0.50000025  -0.00000149  1
  Zn  Zn1  1  0.00035617  0.00000684  0.49999895  1
  Se  Se2  1  0.49999546  0.00000077  0.00007497  1
  Se  Se3  1  0.00000688  0.50000437  0.50000271  1
