# generated using pymatgen
data_ZnS3
_symmetry_space_group_name_H-M   'P 1'
_cell_length_a   6.86982264
_cell_length_b   4.32782032
_cell_length_c   6.86231346
_cell_angle_alpha   90.27544794
_cell_angle_beta   90.00120195
_cell_angle_gamma   92.17606704
_symmetry_Int_Tables_number   1
_chemical_formula_structural   ZnS3
_chemical_formula_sum   'Zn1 S3'
_cell_volume   203.87640773
_cell_formula_units_Z   1
loop_
 _symmetry_equiv_pos_site_id
 _symmetry_equiv_pos_as_xyz
  1  'x, y, z'
loop_
 _atom_site_type_symbol
 _atom_site_label
 _atom_site_symmetry_multiplicity
 _atom_site_fract_x
 _atom_site_fract_y
 _atom_site_fract_z
 _atom_site_occupancy
  S  S0  1  0.50025826  0.50065281  0.00101033  1
  Zn  Zn1  1  0.00045172  0.00100987  0.50086955  1
  S  S2  1  0.50025736  0.00060165  0.00108319  1
  S  S3  1  0.00036571  0.50101808  0.50075258  1
