# generated using pymatgen
data_ZnS3
_symmetry_space_group_name_H-M   'P 1'
_cell_length_a   6.38177622
_cell_length_b   4.31702006
_cell_length_c   6.38177785
_cell_angle_alpha   90.00046126
_cell_angle_beta   89.99976229
_cell_angle_gamma   89.99963981
_symmetry_Int_Tables_number   1
_chemical_formula_structural   ZnS3
_chemical_formula_sum   'Zn1 S3'
_cell_volume   175.81961324
_cell_formula_units_Z   1
loop_
 _symmetry_equiv_pos_site_id
 _symmetry_equiv_pos_as_xyz
  1  'x, y, z'
loop_
 _atom_site_type_symbol
 _atom_site_label
 _atom_site_symmetry_multiplicity
 _atom_site_fract_x
 _atom_site_fract_y
 _atom_site_fract_z
 _atom_site_occupancy
  S  S0  1  0.50000140  0.50000108  0.00005766  1
  Zn  Zn1  1  0.00008941  0.00001607  0.50000093  1
  S  S2  1  0.50000036  0.00000254  0.00003567  1
  S  S3  1  -0.00000298  0.50001628  0.50000123  1
