# generated using pymatgen
data_ZnS3
_symmetry_space_group_name_H-M   'P 1'
_cell_length_a   6.38174879
_cell_length_b   4.31705875
_cell_length_c   6.38173865
_cell_angle_alpha   90.00005957
_cell_angle_beta   90.00009072
_cell_angle_gamma   89.99993634
_symmetry_Int_Tables_number   1
_chemical_formula_structural   ZnS3
_chemical_formula_sum   'Zn1 S3'
_cell_volume   175.81935296
_cell_formula_units_Z   1
loop_
 _symmetry_equiv_pos_site_id
 _symmetry_equiv_pos_as_xyz
  1  'x, y, z'
loop_
 _atom_site_type_symbol
 _atom_site_label
 _atom_site_symmetry_multiplicity
 _atom_site_fract_x
 _atom_site_fract_y
 _atom_site_fract_z
 _atom_site_occupancy
  S  S0  1  0.50000077  0.50008556  0.00009906  1
  Zn  Zn1  1  0.00001234  0.00008979  0.50000287  1
  S  S2  1  0.50000057  0.00017542  0.00008748  1
  S  S3  1  0.00004238  0.50009140  0.50000213  1
