# generated using pymatgen
data_ZnS3
_symmetry_space_group_name_H-M   'P 1'
_cell_length_a   6.38187394
_cell_length_b   4.31703142
_cell_length_c   6.38187443
_cell_angle_alpha   89.99990827
_cell_angle_beta   89.99946811
_cell_angle_gamma   89.99997200
_symmetry_Int_Tables_number   1
_chemical_formula_structural   ZnS3
_chemical_formula_sum   'Zn1 S3'
_cell_volume   175.82542923
_cell_formula_units_Z   1
loop_
 _symmetry_equiv_pos_site_id
 _symmetry_equiv_pos_as_xyz
  1  'x, y, z'
loop_
 _atom_site_type_symbol
 _atom_site_label
 _atom_site_symmetry_multiplicity
 _atom_site_fract_x
 _atom_site_fract_y
 _atom_site_fract_z
 _atom_site_occupancy
  S  S0  1  0.50000046  0.50002640  0.00002047  1
  Zn  Zn1  1  0.00003462  0.00000550  0.50000173  1
  S  S2  1  0.50000032  0.00005548  0.00004972  1
  S  S3  1  -0.00000181  0.50000560  0.50000001  1
