# generated using pymatgen
data_ZnS3
_symmetry_space_group_name_H-M   'P 1'
_cell_length_a   6.38171243
_cell_length_b   4.31705540
_cell_length_c   6.38171314
_cell_angle_alpha   89.99986079
_cell_angle_beta   90.00028952
_cell_angle_gamma   89.99995531
_symmetry_Int_Tables_number   1
_chemical_formula_structural   ZnS3
_chemical_formula_sum   'Zn1 S3'
_cell_volume   175.81751210
_cell_formula_units_Z   1
loop_
 _symmetry_equiv_pos_site_id
 _symmetry_equiv_pos_as_xyz
  1  'x, y, z'
loop_
 _atom_site_type_symbol
 _atom_site_label
 _atom_site_symmetry_multiplicity
 _atom_site_fract_x
 _atom_site_fract_y
 _atom_site_fract_z
 _atom_site_occupancy
  S  S0  1  0.50000108  0.50002238  0.00002085  1
  Zn  Zn1  1  0.00005092  0.00000748  0.50000160  1
  S  S2  1  0.50000043  0.00004534  0.00005370  1
  S  S3  1  0.00002120  0.50000756  0.49999986  1
