# generated using pymatgen
data_ZnS3
_symmetry_space_group_name_H-M   'P 1'
_cell_length_a   6.38177462
_cell_length_b   4.31705945
_cell_length_c   6.38176497
_cell_angle_alpha   90.00001707
_cell_angle_beta   89.99994617
_cell_angle_gamma   90.00000324
_symmetry_Int_Tables_number   1
_chemical_formula_structural   ZnS3
_chemical_formula_sum   'Zn1 S3'
_cell_volume   175.82081859
_cell_formula_units_Z   1
loop_
 _symmetry_equiv_pos_site_id
 _symmetry_equiv_pos_as_xyz
  1  'x, y, z'
loop_
 _atom_site_type_symbol
 _atom_site_label
 _atom_site_symmetry_multiplicity
 _atom_site_fract_x
 _atom_site_fract_y
 _atom_site_fract_z
 _atom_site_occupancy
  S  S0  1  0.50000147  0.50001565  0.00002986  1
  Zn  Zn1  1  0.00000277  0.00000461  0.50000110  1
  S  S2  1  0.50000108  0.00003274  0.00003301  1
  S  S3  1  0.00009556  0.50000466  0.50000048  1
