# generated using pymatgen
data_ZnSeS2
_symmetry_space_group_name_H-M   'P 1'
_cell_length_a   4.60366012
_cell_length_b   4.44636841
_cell_length_c   4.60351049
_cell_angle_alpha   89.99711365
_cell_angle_beta   89.99690492
_cell_angle_gamma   90.00003205
_symmetry_Int_Tables_number   1
_chemical_formula_structural   ZnSeS2
_chemical_formula_sum   'Zn1 Se1 S2'
_cell_volume   94.23187513
_cell_formula_units_Z   1
loop_
 _symmetry_equiv_pos_site_id
 _symmetry_equiv_pos_as_xyz
  1  'x, y, z'
loop_
 _atom_site_type_symbol
 _atom_site_label
 _atom_site_symmetry_multiplicity
 _atom_site_fract_x
 _atom_site_fract_y
 _atom_site_fract_z
 _atom_site_occupancy
  S  S0  1  0.49999738  0.50043008  0.00043721  1
  Zn  Zn1  1  0.00234726  0.00005879  0.49994792  1
  Se  Se2  1  0.49983787  0.00049031  0.00078297  1
  S  S3  1  0.00007126  0.50006097  0.49988470  1
