# generated using pymatgen
data_ZnSeS2
_symmetry_space_group_name_H-M   'P 1'
_cell_length_a   4.60346083
_cell_length_b   4.44637266
_cell_length_c   4.60371145
_cell_angle_alpha   90.00126822
_cell_angle_beta   89.99845617
_cell_angle_gamma   90.00093456
_symmetry_Int_Tables_number   1
_chemical_formula_structural   ZnSeS2
_chemical_formula_sum   'Zn1 Se1 S2'
_cell_volume   94.23199955
_cell_formula_units_Z   1
loop_
 _symmetry_equiv_pos_site_id
 _symmetry_equiv_pos_as_xyz
  1  'x, y, z'
loop_
 _atom_site_type_symbol
 _atom_site_label
 _atom_site_symmetry_multiplicity
 _atom_site_fract_x
 _atom_site_fract_y
 _atom_site_fract_z
 _atom_site_occupancy
  S  S0  1  0.49999912  0.50005066  0.00006336  1
  Zn  Zn1  1  0.00065255  0.00001410  0.49993533  1
  Se  Se2  1  0.49996597  0.00004143  0.00134550  1
  S  S3  1  0.00001459  0.50001855  0.50000770  1
