# generated using pymatgen
data_ZnSe2S
_symmetry_space_group_name_H-M   'P 1'
_cell_length_a   4.79463716
_cell_length_b   4.59096055
_cell_length_c   4.79463522
_cell_angle_alpha   89.99129137
_cell_angle_beta   89.99949896
_cell_angle_gamma   89.99992970
_symmetry_Int_Tables_number   1
_chemical_formula_structural   ZnSe2S
_chemical_formula_sum   'Zn1 Se2 S1'
_cell_volume   105.53946159
_cell_formula_units_Z   1
loop_
 _symmetry_equiv_pos_site_id
 _symmetry_equiv_pos_as_xyz
  1  'x, y, z'
loop_
 _atom_site_type_symbol
 _atom_site_label
 _atom_site_symmetry_multiplicity
 _atom_site_fract_x
 _atom_site_fract_y
 _atom_site_fract_z
 _atom_site_occupancy
  S  S0  1  0.49999965  0.50016604  0.00036262  1
  Zn  Zn1  1  0.00003105  0.00001596  0.49998818  1
  Se  Se2  1  0.49999769  0.00025932  0.00007018  1
  Se  Se3  1  0.00001995  0.50001499  0.50000466  1
