# generated using pymatgen
data_ZnSe2S
_symmetry_space_group_name_H-M   'P 1'
_cell_length_a   4.79467774
_cell_length_b   4.59096197
_cell_length_c   4.79464216
_cell_angle_alpha   90.00147543
_cell_angle_beta   90.00109596
_cell_angle_gamma   89.99722237
_symmetry_Int_Tables_number   1
_chemical_formula_structural   ZnSe2S
_chemical_formula_sum   'Zn1 Se2 S1'
_cell_volume   105.54054108
_cell_formula_units_Z   1
loop_
 _symmetry_equiv_pos_site_id
 _symmetry_equiv_pos_as_xyz
  1  'x, y, z'
loop_
 _atom_site_type_symbol
 _atom_site_label
 _atom_site_symmetry_multiplicity
 _atom_site_fract_x
 _atom_site_fract_y
 _atom_site_fract_z
 _atom_site_occupancy
  S  S0  1  0.50000416  0.50002263  0.00003502  1
  Zn  Zn1  1  0.00115559  0.00016808  0.49996398  1
  Se  Se2  1  0.49995815  0.00006136  0.00101532  1
  Se  Se3  1  0.00152165  0.50011863  0.49999896  1
