# generated using pymatgen
data_ZnSe2S
_symmetry_space_group_name_H-M   'P 1'
_cell_length_a   4.79462287
_cell_length_b   4.59096486
_cell_length_c   4.79461695
_cell_angle_alpha   89.99847512
_cell_angle_beta   90.00183342
_cell_angle_gamma   89.99885424
_symmetry_Int_Tables_number   1
_chemical_formula_structural   ZnSe2S
_chemical_formula_sum   'Zn1 Se2 S1'
_cell_volume   105.53884516
_cell_formula_units_Z   1
loop_
 _symmetry_equiv_pos_site_id
 _symmetry_equiv_pos_as_xyz
  1  'x, y, z'
loop_
 _atom_site_type_symbol
 _atom_site_label
 _atom_site_symmetry_multiplicity
 _atom_site_fract_x
 _atom_site_fract_y
 _atom_site_fract_z
 _atom_site_occupancy
  S  S0  1  0.50000532  0.50025631  0.00010057  1
  Zn  Zn1  1  -0.00000041  0.00008628  0.49999823  1
  Se  Se2  1  0.49999898  0.00060066  0.00001847  1
  Se  Se3  1  0.00056781  0.50006407  0.50000104  1
