# generated using pymatgen
data_ZnSe2S
_symmetry_space_group_name_H-M   'P 1'
_cell_length_a   4.79463674
_cell_length_b   4.59095836
_cell_length_c   4.79462880
_cell_angle_alpha   90.00014561
_cell_angle_beta   89.99952171
_cell_angle_gamma   89.99978768
_symmetry_Int_Tables_number   1
_chemical_formula_structural   ZnSe2S
_chemical_formula_sum   'Zn1 Se2 S1'
_cell_volume   105.53926163
_cell_formula_units_Z   1
loop_
 _symmetry_equiv_pos_site_id
 _symmetry_equiv_pos_as_xyz
  1  'x, y, z'
loop_
 _atom_site_type_symbol
 _atom_site_label
 _atom_site_symmetry_multiplicity
 _atom_site_fract_x
 _atom_site_fract_y
 _atom_site_fract_z
 _atom_site_occupancy
  S  S0  1  0.50000059  0.50001232  0.00000435  1
  Zn  Zn1  1  -0.00000150  0.00000823  0.49999993  1
  Se  Se2  1  0.49999994  0.00002893  0.00000015  1
  Se  Se3  1  0.00006353  0.50000611  0.50000003  1
