# generated using pymatgen
data_ZnSe2S
_symmetry_space_group_name_H-M   'P 1'
_cell_length_a   4.79461940
_cell_length_b   4.59096183
_cell_length_c   4.79461820
_cell_angle_alpha   90.00012144
_cell_angle_beta   90.00003677
_cell_angle_gamma   89.99985156
_symmetry_Int_Tables_number   1
_chemical_formula_structural   ZnSe2S
_chemical_formula_sum   'Zn1 Se2 S1'
_cell_volume   105.53872665
_cell_formula_units_Z   1
loop_
 _symmetry_equiv_pos_site_id
 _symmetry_equiv_pos_as_xyz
  1  'x, y, z'
loop_
 _atom_site_type_symbol
 _atom_site_label
 _atom_site_symmetry_multiplicity
 _atom_site_fract_x
 _atom_site_fract_y
 _atom_site_fract_z
 _atom_site_occupancy
  S  S0  1  0.50000032  0.50000852  0.00000186  1
  Zn  Zn1  1  0.00000401  0.00003661  0.49999965  1
  Se  Se2  1  0.49999972  0.00002074  0.00000742  1
  Se  Se3  1  0.00003678  0.50002722  0.50000003  1
