# generated using pymatgen
data_ZnSe2S
_symmetry_space_group_name_H-M   'P 1'
_cell_length_a   4.79461095
_cell_length_b   4.59096382
_cell_length_c   4.79462770
_cell_angle_alpha   90.00217514
_cell_angle_beta   89.99795022
_cell_angle_gamma   90.00014271
_symmetry_Int_Tables_number   1
_chemical_formula_structural   ZnSe2S
_chemical_formula_sum   'Zn1 Se2 S1'
_cell_volume   105.53879539
_cell_formula_units_Z   1
loop_
 _symmetry_equiv_pos_site_id
 _symmetry_equiv_pos_as_xyz
  1  'x, y, z'
loop_
 _atom_site_type_symbol
 _atom_site_label
 _atom_site_symmetry_multiplicity
 _atom_site_fract_x
 _atom_site_fract_y
 _atom_site_fract_z
 _atom_site_occupancy
  S  S0  1  0.49999929  0.50012869  0.00017071  1
  Zn  Zn1  1  0.00009206  0.00001310  0.49997567  1
  Se  Se2  1  0.49999642  0.00030087  0.00055666  1
  Se  Se3  1  0.00001589  0.50000959  0.50000117  1
