# generated using pymatgen
data_ZnSe2S
_symmetry_space_group_name_H-M   'P 1'
_cell_length_a   4.52972027
_cell_length_b   4.64366808
_cell_length_c   4.52970998
_cell_angle_alpha   89.99997543
_cell_angle_beta   90.00023645
_cell_angle_gamma   90.00011091
_symmetry_Int_Tables_number   1
_chemical_formula_structural   ZnSe2S
_chemical_formula_sum   'Zn1 Se2 S1'
_cell_volume   95.28026341
_cell_formula_units_Z   1
loop_
 _symmetry_equiv_pos_site_id
 _symmetry_equiv_pos_as_xyz
  1  'x, y, z'
loop_
 _atom_site_type_symbol
 _atom_site_label
 _atom_site_symmetry_multiplicity
 _atom_site_fract_x
 _atom_site_fract_y
 _atom_site_fract_z
 _atom_site_occupancy
  Se  Se0  1  0.49999845  0.50012934  0.00008979  1
  Zn  Zn1  1  -0.00000048  0.00000711  0.50000042  1
  S  S2  1  0.50000078  0.00024492  0.00000077  1
  Se  Se3  1  0.00004875  0.50000902  0.49999714  1
