# generated using pymatgen
data_ZnSeS2
_symmetry_space_group_name_H-M   'P 1'
_cell_length_a   4.60370544
_cell_length_b   4.44637078
_cell_length_c   4.60350638
_cell_angle_alpha   89.99874133
_cell_angle_beta   89.99747853
_cell_angle_gamma   90.00025313
_symmetry_Int_Tables_number   1
_chemical_formula_structural   ZnSeS2
_chemical_formula_sum   'Zn1 Se1 S2'
_cell_volume   94.23276885
_cell_formula_units_Z   1
loop_
 _symmetry_equiv_pos_site_id
 _symmetry_equiv_pos_as_xyz
  1  'x, y, z'
loop_
 _atom_site_type_symbol
 _atom_site_label
 _atom_site_symmetry_multiplicity
 _atom_site_fract_x
 _atom_site_fract_y
 _atom_site_fract_z
 _atom_site_occupancy
  S  S0  1  0.49999728  0.50003943  0.00000533  1
  Zn  Zn1  1  0.00195167  0.00001109  0.49995566  1
  Se  Se2  1  0.49990065  0.00003272  0.00092712  1
  S  S3  1  0.00006078  0.50001490  0.50001456  1
