# generated using pymatgen
data_ZnSe2S
_symmetry_space_group_name_H-M   'P 1'
_cell_length_a   4.52971727
_cell_length_b   4.64366526
_cell_length_c   4.52971671
_cell_angle_alpha   90.00017223
_cell_angle_beta   90.00022904
_cell_angle_gamma   90.00013592
_symmetry_Int_Tables_number   1
_chemical_formula_structural   ZnSe2S
_chemical_formula_sum   'Zn1 Se2 S1'
_cell_volume   95.28028422
_cell_formula_units_Z   1
loop_
 _symmetry_equiv_pos_site_id
 _symmetry_equiv_pos_as_xyz
  1  'x, y, z'
loop_
 _atom_site_type_symbol
 _atom_site_label
 _atom_site_symmetry_multiplicity
 _atom_site_fract_x
 _atom_site_fract_y
 _atom_site_fract_z
 _atom_site_occupancy
  Se  Se0  1  0.49999870  0.50001088  0.00001112  1
  Zn  Zn1  1  0.00000573  0.00001120  0.50000687  1
  S  S2  1  0.50000107  0.00002009  0.00010508  1
  Se  Se3  1  0.00004252  0.50000794  0.50000138  1
