# generated using pymatgen
data_ZnSeS2
_symmetry_space_group_name_H-M   'P 1'
_cell_length_a   4.60334244
_cell_length_b   4.44639444
_cell_length_c   4.60381992
_cell_angle_alpha   90.00050548
_cell_angle_beta   89.99967301
_cell_angle_gamma   90.00090670
_symmetry_Int_Tables_number   1
_chemical_formula_structural   ZnSeS2
_chemical_formula_sum   'Zn1 Se1 S2'
_cell_volume   94.23225777
_cell_formula_units_Z   1
loop_
 _symmetry_equiv_pos_site_id
 _symmetry_equiv_pos_as_xyz
  1  'x, y, z'
loop_
 _atom_site_type_symbol
 _atom_site_label
 _atom_site_symmetry_multiplicity
 _atom_site_fract_x
 _atom_site_fract_y
 _atom_site_fract_z
 _atom_site_occupancy
  S  S0  1  0.49987255  0.50000157  -0.00000227  1
  Zn  Zn1  1  0.00027450  0.00002323  0.49999072  1
  Se  Se2  1  0.49999261  0.00000123  0.00016030  1
  S  S3  1  0.00043721  0.50003202  0.50000376  1
