# generated using pymatgen
data_ZnSeS2
_symmetry_space_group_name_H-M   'P 1'
_cell_length_a   4.60401144
_cell_length_b   4.44636158
_cell_length_c   4.60329310
_cell_angle_alpha   90.00013934
_cell_angle_beta   89.99895155
_cell_angle_gamma   90.00083277
_symmetry_Int_Tables_number   1
_chemical_formula_structural   ZnSeS2
_chemical_formula_sum   'Zn1 Se1 S2'
_cell_volume   94.23447122
_cell_formula_units_Z   1
loop_
 _symmetry_equiv_pos_site_id
 _symmetry_equiv_pos_as_xyz
  1  'x, y, z'
loop_
 _atom_site_type_symbol
 _atom_site_label
 _atom_site_symmetry_multiplicity
 _atom_site_fract_x
 _atom_site_fract_y
 _atom_site_fract_z
 _atom_site_occupancy
  S  S0  1  0.49986216  0.50002007  0.00015274  1
  Zn  Zn1  1  0.00273444  0.00009284  0.49998801  1
  Se  Se2  1  0.49979433  0.00001930  0.00013574  1
  S  S3  1  0.00043727  0.50009437  0.49995194  1
