# generated using pymatgen
data_ZnSeSO
_symmetry_space_group_name_H-M   'P 1'
_cell_length_a   nan
_cell_length_b   nan
_cell_length_c   nan
_cell_angle_alpha   nan
_cell_angle_beta   nan
_cell_angle_gamma   nan
_symmetry_Int_Tables_number   1
_chemical_formula_structural   ZnSeSO
_chemical_formula_sum   'Zn1 Se1 S1 O1'
_cell_volume   nan
_cell_formula_units_Z   1
loop_
 _symmetry_equiv_pos_site_id
 _symmetry_equiv_pos_as_xyz
  1  'x, y, z'
loop_
 _atom_site_type_symbol
 _atom_site_label
 _atom_site_symmetry_multiplicity
 _atom_site_fract_x
 _atom_site_fract_y
 _atom_site_fract_z
 _atom_site_occupancy
  O  O0  1  nan  nan  nan  1
  Zn  Zn1  1  nan  nan  nan  1
  Se  Se2  1  nan  nan  nan  1
  S  S3  1  nan  nan  nan  1
