# generated using pymatgen
data_ZnSeS2
_symmetry_space_group_name_H-M   'P 1'
_cell_length_a   4.60313756
_cell_length_b   4.44630575
_cell_length_c   4.60410232
_cell_angle_alpha   89.99822444
_cell_angle_beta   89.99754056
_cell_angle_gamma   89.99969003
_symmetry_Int_Tables_number   1
_chemical_formula_structural   ZnSeS2
_chemical_formula_sum   'Zn1 Se1 S2'
_cell_volume   94.23196423
_cell_formula_units_Z   1
loop_
 _symmetry_equiv_pos_site_id
 _symmetry_equiv_pos_as_xyz
  1  'x, y, z'
loop_
 _atom_site_type_symbol
 _atom_site_label
 _atom_site_symmetry_multiplicity
 _atom_site_fract_x
 _atom_site_fract_y
 _atom_site_fract_z
 _atom_site_occupancy
  S  S0  1  0.49997698  0.50000384  -0.00000295  1
  Zn  Zn1  1  0.00054914  0.00004887  0.49985905  1
  Se  Se2  1  0.49997792  0.00000243  0.00341875  1
  S  S3  1  0.00010558  0.50007539  0.50005231  1
