# generated using pymatgen
data_ZnSe2S
_symmetry_space_group_name_H-M   'P 1'
_cell_length_a   4.79471895
_cell_length_b   4.59095632
_cell_length_c   4.79455178
_cell_angle_alpha   90.00018327
_cell_angle_beta   89.99726522
_cell_angle_gamma   90.00229887
_symmetry_Int_Tables_number   1
_chemical_formula_structural   ZnSe2S
_chemical_formula_sum   'Zn1 Se2 S1'
_cell_volume   105.53932911
_cell_formula_units_Z   1
loop_
 _symmetry_equiv_pos_site_id
 _symmetry_equiv_pos_as_xyz
  1  'x, y, z'
loop_
 _atom_site_type_symbol
 _atom_site_label
 _atom_site_symmetry_multiplicity
 _atom_site_fract_x
 _atom_site_fract_y
 _atom_site_fract_z
 _atom_site_occupancy
  S  S0  1  0.49999036  0.49999984  0.00000523  1
  Zn  Zn1  1  0.00099621  0.00005775  0.49999830  1
  Se  Se2  1  0.49996169  0.00000104  0.00004013  1
  Se  Se3  1  -0.00001721  0.50004302  0.50000001  1
