# generated using pymatgen
data_ZnSe2S
_symmetry_space_group_name_H-M   'P 1'
_cell_length_a   4.79471093
_cell_length_b   4.59095274
_cell_length_c   4.79469761
_cell_angle_alpha   89.99608478
_cell_angle_beta   90.00025479
_cell_angle_gamma   90.00096779
_symmetry_Int_Tables_number   1
_chemical_formula_structural   ZnSe2S
_chemical_formula_sum   'Zn1 Se2 S1'
_cell_volume   105.54228000
_cell_formula_units_Z   1
loop_
 _symmetry_equiv_pos_site_id
 _symmetry_equiv_pos_as_xyz
  1  'x, y, z'
loop_
 _atom_site_type_symbol
 _atom_site_label
 _atom_site_symmetry_multiplicity
 _atom_site_fract_x
 _atom_site_fract_y
 _atom_site_fract_z
 _atom_site_occupancy
  S  S0  1  0.49999767  0.50005081  0.00207052  1
  Zn  Zn1  1  0.00045964  0.00009074  0.49994939  1
  Se  Se2  1  0.49998419  0.00013026  0.00091708  1
  Se  Se3  1  0.00016925  0.50006415  0.50001924  1
