# generated using pymatgen
data_ZnSe2S
_symmetry_space_group_name_H-M   'P 1'
_cell_length_a   4.79461298
_cell_length_b   4.59096166
_cell_length_c   4.79462742
_cell_angle_alpha   90.00012868
_cell_angle_beta   89.99999239
_cell_angle_gamma   89.99999468
_symmetry_Int_Tables_number   1
_chemical_formula_structural   ZnSe2S
_chemical_formula_sum   'Zn1 Se2 S1'
_cell_volume   105.53878422
_cell_formula_units_Z   1
loop_
 _symmetry_equiv_pos_site_id
 _symmetry_equiv_pos_as_xyz
  1  'x, y, z'
loop_
 _atom_site_type_symbol
 _atom_site_label
 _atom_site_symmetry_multiplicity
 _atom_site_fract_x
 _atom_site_fract_y
 _atom_site_fract_z
 _atom_site_occupancy
  S  S0  1  0.50000017  0.50000244  0.00001068  1
  Zn  Zn1  1  0.00005636  0.00003438  0.49998085  1
  Se  Se2  1  0.49999764  0.00000660  0.00046996  1
  Se  Se3  1  0.00007414  0.50002560  0.49999963  1
