# generated using pymatgen
data_ZnSe2S
_symmetry_space_group_name_H-M   'P 1'
_cell_length_a   4.79463386
_cell_length_b   4.59095958
_cell_length_c   4.79462889
_cell_angle_alpha   89.99918991
_cell_angle_beta   89.99845256
_cell_angle_gamma   89.99980458
_symmetry_Int_Tables_number   1
_chemical_formula_structural   ZnSe2S
_chemical_formula_sum   'Zn1 Se2 S1'
_cell_volume   105.53922861
_cell_formula_units_Z   1
loop_
 _symmetry_equiv_pos_site_id
 _symmetry_equiv_pos_as_xyz
  1  'x, y, z'
loop_
 _atom_site_type_symbol
 _atom_site_label
 _atom_site_symmetry_multiplicity
 _atom_site_fract_x
 _atom_site_fract_y
 _atom_site_fract_z
 _atom_site_occupancy
  S  S0  1  0.50000063  0.50010421  0.00011042  1
  Zn  Zn1  1  -0.00000137  0.00010468  0.49999871  1
  Se  Se2  1  0.49999994  0.00024608  0.00000457  1
  Se  Se3  1  0.00006563  0.50007785  0.50000114  1
