# generated using pymatgen
data_ZnSe2S
_symmetry_space_group_name_H-M   'P 1'
_cell_length_a   4.79462967
_cell_length_b   4.59096011
_cell_length_c   4.79461974
_cell_angle_alpha   90.00025715
_cell_angle_beta   90.00212784
_cell_angle_gamma   89.99874405
_symmetry_Int_Tables_number   1
_chemical_formula_structural   ZnSe2S
_chemical_formula_sum   'Zn1 Se2 S1'
_cell_volume   105.53894704
_cell_formula_units_Z   1
loop_
 _symmetry_equiv_pos_site_id
 _symmetry_equiv_pos_as_xyz
  1  'x, y, z'
loop_
 _atom_site_type_symbol
 _atom_site_label
 _atom_site_symmetry_multiplicity
 _atom_site_fract_x
 _atom_site_fract_y
 _atom_site_fract_z
 _atom_site_occupancy
  S  S0  1  0.50000402  0.50002278  0.00002441  1
  Zn  Zn1  1  0.00004592  0.00006937  0.49998857  1
  Se  Se2  1  0.49999733  0.00005501  0.00027501  1
  Se  Se3  1  0.00047775  0.50005164  0.49999998  1
