# generated using pymatgen
data_ZnSe2S
_symmetry_space_group_name_H-M   'P 1'
_cell_length_a   4.79465885
_cell_length_b   4.59095677
_cell_length_c   4.79463761
_cell_angle_alpha   89.99736342
_cell_angle_beta   89.99990936
_cell_angle_gamma   90.00065287
_symmetry_Int_Tables_number   1
_chemical_formula_structural   ZnSe2S
_chemical_formula_sum   'Zn1 Se2 S1'
_cell_volume   105.53990561
_cell_formula_units_Z   1
loop_
 _symmetry_equiv_pos_site_id
 _symmetry_equiv_pos_as_xyz
  1  'x, y, z'
loop_
 _atom_site_type_symbol
 _atom_site_label
 _atom_site_symmetry_multiplicity
 _atom_site_fract_x
 _atom_site_fract_y
 _atom_site_fract_z
 _atom_site_occupancy
  S  S0  1  0.49999766  0.50009312  0.00052267  1
  Zn  Zn1  1  0.00025211  0.00004009  0.49998759  1
  Se  Se2  1  0.49998970  0.00020841  0.00016081  1
  Se  Se3  1  0.00002127  0.50003122  0.50000527  1
