# generated using pymatgen
data_ZnSe2S
_symmetry_space_group_name_H-M   'P 1'
_cell_length_a   4.52653582
_cell_length_b   4.64362846
_cell_length_c   4.53295269
_cell_angle_alpha   90.00004524
_cell_angle_beta   89.99881768
_cell_angle_gamma   89.99988003
_symmetry_Int_Tables_number   1
_chemical_formula_structural   ZnSe2S
_chemical_formula_sum   'Zn1 Se2 S1'
_cell_volume   95.28062815
_cell_formula_units_Z   1
loop_
 _symmetry_equiv_pos_site_id
 _symmetry_equiv_pos_as_xyz
  1  'x, y, z'
loop_
 _atom_site_type_symbol
 _atom_site_label
 _atom_site_symmetry_multiplicity
 _atom_site_fract_x
 _atom_site_fract_y
 _atom_site_fract_z
 _atom_site_occupancy
  Se  Se0  1  0.49988910  0.50020143  0.00023505  1
  Zn  Zn1  1  0.00192521  0.00007015  0.50031789  1
  S  S2  1  0.50138190  0.00026989  0.00033181  1
  Se  Se3  1  0.00030797  0.50005794  0.49999926  1
