# generated using pymatgen
data_ZnSeS2
_symmetry_space_group_name_H-M   'P 1'
_cell_length_a   4.60291660
_cell_length_b   4.44638941
_cell_length_c   4.60423976
_cell_angle_alpha   90.01305686
_cell_angle_beta   89.99999364
_cell_angle_gamma   90.00023647
_symmetry_Int_Tables_number   1
_chemical_formula_structural   ZnSeS2
_chemical_formula_sum   'Zn1 Se1 S2'
_cell_volume   94.23202413
_cell_formula_units_Z   1
loop_
 _symmetry_equiv_pos_site_id
 _symmetry_equiv_pos_as_xyz
  1  'x, y, z'
loop_
 _atom_site_type_symbol
 _atom_site_label
 _atom_site_symmetry_multiplicity
 _atom_site_fract_x
 _atom_site_fract_y
 _atom_site_fract_z
 _atom_site_occupancy
  S  S0  1  0.50000019  0.50019131  0.00000028  1
  Zn  Zn1  1  0.00007304  -0.00000081  0.49999934  1
  Se  Se2  1  0.49999941  0.00026188  0.00010816  1
  S  S3  1  0.00000339  0.50000247  0.50000080  1
