# generated using pymatgen
data_ZnSe2S
_symmetry_space_group_name_H-M   'P 1'
_cell_length_a   4.79462708
_cell_length_b   4.59096167
_cell_length_c   4.79461141
_cell_angle_alpha   89.99982999
_cell_angle_beta   90.00015580
_cell_angle_gamma   89.99710242
_symmetry_Int_Tables_number   1
_chemical_formula_structural   ZnSe2S
_chemical_formula_sum   'Zn1 Se2 S1'
_cell_volume   105.53874236
_cell_formula_units_Z   1
loop_
 _symmetry_equiv_pos_site_id
 _symmetry_equiv_pos_as_xyz
  1  'x, y, z'
loop_
 _atom_site_type_symbol
 _atom_site_label
 _atom_site_symmetry_multiplicity
 _atom_site_fract_x
 _atom_site_fract_y
 _atom_site_fract_z
 _atom_site_occupancy
  S  S0  1  0.50000240  0.50001583  0.00006475  1
  Zn  Zn1  1  0.00000371  0.00024911  0.49999904  1
  Se  Se2  1  0.49999934  0.00004336  0.00000666  1
  Se  Se3  1  0.00025968  0.50018570  0.50000068  1
