# generated using pymatgen
data_ZnSe2S
_symmetry_space_group_name_H-M   'P 1'
_cell_length_a   4.79462161
_cell_length_b   4.59096127
_cell_length_c   4.79461392
_cell_angle_alpha   90.00011588
_cell_angle_beta   89.99859724
_cell_angle_gamma   89.99818919
_symmetry_Int_Tables_number   1
_chemical_formula_structural   ZnSe2S
_chemical_formula_sum   'Zn1 Se2 S1'
_cell_volume   105.53866812
_cell_formula_units_Z   1
loop_
 _symmetry_equiv_pos_site_id
 _symmetry_equiv_pos_as_xyz
  1  'x, y, z'
loop_
 _atom_site_type_symbol
 _atom_site_label
 _atom_site_symmetry_multiplicity
 _atom_site_fract_x
 _atom_site_fract_y
 _atom_site_fract_z
 _atom_site_occupancy
  S  S0  1  0.50000050  0.50000788  0.00002143  1
  Zn  Zn1  1  -0.00000077  0.00063659  0.49999971  1
  Se  Se2  1  0.49999993  0.00003465  0.00000152  1
  Se  Se3  1  0.00005305  0.50047800  0.50000022  1
