# generated using pymatgen
data_ZnSe2S
_symmetry_space_group_name_H-M   'P 1'
_cell_length_a   4.79464995
_cell_length_b   4.59095666
_cell_length_c   4.79464157
_cell_angle_alpha   89.99644954
_cell_angle_beta   90.00160483
_cell_angle_gamma   89.99965335
_symmetry_Int_Tables_number   1
_chemical_formula_structural   ZnSe2S
_chemical_formula_sum   'Zn1 Se2 S1'
_cell_volume   105.53979441
_cell_formula_units_Z   1
loop_
 _symmetry_equiv_pos_site_id
 _symmetry_equiv_pos_as_xyz
  1  'x, y, z'
loop_
 _atom_site_type_symbol
 _atom_site_label
 _atom_site_symmetry_multiplicity
 _atom_site_fract_x
 _atom_site_fract_y
 _atom_site_fract_z
 _atom_site_occupancy
  S  S0  1  0.50000335  0.50017061  0.00036074  1
  Zn  Zn1  1  -0.00000117  0.00005708  0.49999627  1
  Se  Se2  1  0.49999933  0.00044920  0.00001810  1
  Se  Se3  1  0.00036569  0.50003692  0.50000354  1
