# generated using pymatgen
data_ZnSe2S
_symmetry_space_group_name_H-M   'P 1'
_cell_length_a   4.79465946
_cell_length_b   4.59092999
_cell_length_c   4.79502296
_cell_angle_alpha   89.99777015
_cell_angle_beta   89.99917973
_cell_angle_gamma   89.99859963
_symmetry_Int_Tables_number   1
_chemical_formula_structural   ZnSe2S
_chemical_formula_sum   'Zn1 Se2 S1'
_cell_volume   105.54778594
_cell_formula_units_Z   1
loop_
 _symmetry_equiv_pos_site_id
 _symmetry_equiv_pos_as_xyz
  1  'x, y, z'
loop_
 _atom_site_type_symbol
 _atom_site_label
 _atom_site_symmetry_multiplicity
 _atom_site_fract_x
 _atom_site_fract_y
 _atom_site_fract_z
 _atom_site_occupancy
  S  S0  1  0.50001728  0.50037284  0.00021383  1
  Zn  Zn1  1  0.00078580  0.00017193  0.49987367  1
  Se  Se2  1  0.49994514  0.00053423  0.00185297  1
  Se  Se3  1  0.00284719  0.50018991  0.50000210  1
