# generated using pymatgen
data_ZnSeS2
_symmetry_space_group_name_H-M   'P 1'
_cell_length_a   4.60356028
_cell_length_b   4.44639565
_cell_length_c   4.60356193
_cell_angle_alpha   89.99964862
_cell_angle_beta   90.00009512
_cell_angle_gamma   89.99937268
_symmetry_Int_Tables_number   1
_chemical_formula_structural   ZnSeS2
_chemical_formula_sum   'Zn1 Se1 S2'
_cell_volume   94.23146192
_cell_formula_units_Z   1
loop_
 _symmetry_equiv_pos_site_id
 _symmetry_equiv_pos_as_xyz
  1  'x, y, z'
loop_
 _atom_site_type_symbol
 _atom_site_label
 _atom_site_symmetry_multiplicity
 _atom_site_fract_x
 _atom_site_fract_y
 _atom_site_fract_z
 _atom_site_occupancy
  S  S0  1  0.49999793  0.50004065  -0.00000057  1
  Zn  Zn1  1  0.00001723  0.00000018  0.49999962  1
  Se  Se2  1  0.49999972  0.00005550  0.00005992  1
  S  S3  1  0.00002365  0.50000072  0.50000060  1
