# generated using pymatgen
data_ZnSeS2
_symmetry_space_group_name_H-M   'P 1'
_cell_length_a   4.60329817
_cell_length_b   4.44638245
_cell_length_c   4.60394574
_cell_angle_alpha   89.99767661
_cell_angle_beta   89.99910000
_cell_angle_gamma   90.00051218
_symmetry_Int_Tables_number   1
_chemical_formula_structural   ZnSeS2
_chemical_formula_sum   'Zn1 Se1 S2'
_cell_volume   94.23367258
_cell_formula_units_Z   1
loop_
 _symmetry_equiv_pos_site_id
 _symmetry_equiv_pos_as_xyz
  1  'x, y, z'
loop_
 _atom_site_type_symbol
 _atom_site_label
 _atom_site_symmetry_multiplicity
 _atom_site_fract_x
 _atom_site_fract_y
 _atom_site_fract_z
 _atom_site_occupancy
  S  S0  1  0.49995537  0.50062105  0.00102563  1
  Zn  Zn1  1  0.00075194  0.00017711  0.49999062  1
  Se  Se2  1  0.49997924  0.00051968  0.00034892  1
  S  S3  1  0.00024893  0.50022590  0.49981887  1
